New Line.l(r:p1rdt5274lv-p1rlv10789) Units=km Length=0.04693630000000001 bus1=p1rdt5274lv.1.2 bus2=p1rlv10789.1.2 switch=n enabled=y phases=2 Linecode=1P_OH_AL_4/0_Zuzara_0_416_0_2_2

New Line.l(r:p1rdm11029-p1rlv10870) Units=km Length=0.0451948 bus1=p1rdm11029.1.2 bus2=p1rlv10870.1.2 switch=n enabled=y phases=2 Linecode=1P_OH_AL_4/0_Zuzara_0_416_0_2_2

New Line.l(r:p1rdm11029-p1rdt5274lv) Units=km Length=0.0343363 bus1=p1rdt5274lv.1.2 bus2=p1rdm11029.1.2 switch=n enabled=y phases=2 Linecode=1P_OH_AL_4/0_Zuzara_0_416_0_2_2

New Line.l(r:p1rdm11030-p1rlv10906) Units=km Length=0.0753593 bus1=p1rdm11030.1.2 bus2=p1rlv10906.1.2 switch=n enabled=y phases=2 Linecode=1P_OH_AL_4/0_Zuzara_0_416_0_2_2

New Line.l(r:p1rdm11030-p1rlv10967) Units=km Length=0.0220049 bus1=p1rdm11030.1.2 bus2=p1rlv10967.1.2 switch=n enabled=y phases=2 Linecode=1P_OH_AL_2/0_Rucina_0_416_0_2_2

New Line.l(r:p1rdm11030-p1rdt5274lv) Units=km Length=0.0198706 bus1=p1rdt5274lv.1.2 bus2=p1rdm11030.1.2 switch=n enabled=y phases=2 Linecode=1P_OH_AL_2/0_Rucina_0_416_0_2_2

New Line.l(r:p1rdt5295lv-p1rlv10838) Units=km Length=0.0616016 bus1=p1rdt5295lv.1.2 bus2=p1rlv10838.1.2 switch=n enabled=y phases=2 Linecode=1P_OH_AL_4/0_Zuzara_0_416_0_2_2

New Line.l(r:p1rdt5295lv-p1rlv10875) Units=km Length=0.0200125 bus1=p1rdt5295lv.1.2 bus2=p1rlv10875.1.2 switch=n enabled=y phases=2 Linecode=1P_OH_AL_2/0_Rucina_0_416_0_2_2

New Line.l(r:p1rdt5297lv-p1rlv10991) Units=km Length=0.0661293 bus1=p1rdt5297lv.1.2 bus2=p1rlv10991.1.2 switch=n enabled=y phases=2 Linecode=1P_OH_AL_4/0_Zuzara_0_416_0_2_2

New Line.l(r:p1rdt5297lv-p1rlv11073) Units=km Length=0.101997 bus1=p1rdt5297lv.1.2 bus2=p1rlv11073.1.2 switch=n enabled=y phases=2 Linecode=1P_OH_AL_4/0_Zuzara_0_416_0_2_2

New Line.l(r:p1rdm11092-p1rlv10842) Units=km Length=0.0688144 bus1=p1rdm11092.1.2 bus2=p1rlv10842.1.2 switch=n enabled=y phases=2 Linecode=1P_OH_AL_4/0_Zuzara_0_416_0_2_2

New Line.l(r:p1rdm11092-p1rlv24815) Units=km Length=0.08593140000000002 bus1=p1rdm11092.1.2 bus2=p1rlv24815.1.2 switch=n enabled=y phases=2 Linecode=1P_OH_AL_4/0_Zuzara_0_416_0_2_2

New Line.l(r:p1rdm11092-p1rdt5297lv) Units=km Length=0.018984200000000003 bus1=p1rdt5297lv.1.2 bus2=p1rdm11092.1.2 switch=n enabled=y phases=2 Linecode=1P_OH_AL_2/0_Rucina_0_416_0_2_2

New Line.l(r:p1rdt5345lv-p1rlv10962) Units=km Length=0.0106148 bus1=p1rdt5345lv.1.2 bus2=p1rlv10962.1.2 switch=n enabled=y phases=2 Linecode=1P_OH_AL_2/0_Rucina_0_416_0_2_2

New Line.l(r:p1rdt5360lv-p1rlv11001) Units=km Length=0.001 bus1=p1rdt5360lv.1.2 bus2=p1rlv11001.1.2 switch=n enabled=y phases=2 Linecode=1P_OH_AL_4_Periwinkle_0_416_0_2_2

New Line.l(r:p1rdt5376lv-p1rlv11081) Units=km Length=0.0240385 bus1=p1rdt5376lv.1.2 bus2=p1rlv11081.1.2 switch=n enabled=y phases=2 Linecode=1P_OH_AL_2/0_Rucina_0_416_0_2_2

New Line.l(r:p1rdm11263-p1rlv11087) Units=km Length=0.00855082 bus1=p1rdm11263.1.2 bus2=p1rlv11087.1.2 switch=n enabled=y phases=2 Linecode=1P_OH_AL_2/0_Rucina_0_416_0_2_2

New Line.l(r:p1rdm11265-p1rlv24852) Units=km Length=0.027597000000000003 bus1=p1rdm11265.1.2 bus2=p1rlv24852.1.2 switch=n enabled=y phases=2 Linecode=1P_OH_AL_4/0_Zuzara_0_416_0_2_2

New Line.l(r:p1rdm11263-p1rdm11265) Units=km Length=0.0367697 bus1=p1rdm11263.1.2 bus2=p1rdm11265.1.2 switch=n enabled=y phases=2 Linecode=1P_OH_AL_4/0_Zuzara_0_416_0_2_2

New Line.l(r:p1rdm11263-p1rdt5380lv) Units=km Length=0.018865 bus1=p1rdt5380lv.1.2 bus2=p1rdm11263.1.2 switch=n enabled=y phases=2 Linecode=1P_OH_AL_2/0_Rucina_0_416_0_2_2

New Line.l(r:p1rdm11264-p1rlv11088) Units=km Length=0.0182528 bus1=p1rdm11264.1.2 bus2=p1rlv11088.1.2 switch=n enabled=y phases=2 Linecode=1P_OH_AL_2/0_Rucina_0_416_0_2_2

New Line.l(r:p1rdm11264-p1rdt5380lv) Units=km Length=0.0377374 bus1=p1rdt5380lv.1.2 bus2=p1rdm11264.1.2 switch=n enabled=y phases=2 Linecode=1P_OH_AL_4/0_Zuzara_0_416_0_2_2

New Line.l(r:p1rdt5393lv-p1rlv11104) Units=km Length=0.014411 bus1=p1rdt5393lv.1.2 bus2=p1rlv11104.1.2 switch=n enabled=y phases=2 Linecode=1P_OH_AL_2/0_Rucina_0_416_0_2_2

New Line.l(r:p1rdt6020lv-p1rlv12509) Units=km Length=0.0525905 bus1=p1rdt6020lv.1.2 bus2=p1rlv12509.1.2 switch=n enabled=y phases=2 Linecode=1P_OH_AL_4/0_Zuzara_0_416_0_2_2

New Line.l(r:p1rdt6020lv-p1rlv12514) Units=km Length=0.0840656 bus1=p1rdt6020lv.1.2 bus2=p1rlv12514.1.2 switch=n enabled=y phases=2 Linecode=1P_OH_AL_4/0_Zuzara_0_416_0_2_2

New Line.l(r:p1rdt6020lv-p1rlv12530) Units=km Length=0.13082300000000002 bus1=p1rdt6020lv.1.2 bus2=p1rlv12530.1.2 switch=n enabled=y phases=2 Linecode=1P_OH_AL_4/0_Zuzara_0_416_0_2_2

New Line.l(r:p1rdt6020lv-p1rlv12532) Units=km Length=0.0997248 bus1=p1rdt6020lv.1.2 bus2=p1rlv12532.1.2 switch=n enabled=y phases=2 Linecode=1P_OH_AL_4/0_Zuzara_0_416_0_2_2

New Line.l(r:p1rdt6020lv-p1rlv12546) Units=km Length=0.0950868 bus1=p1rdt6020lv.1.2 bus2=p1rlv12546.1.2 switch=n enabled=y phases=2 Linecode=1P_OH_AL_4/0_Zuzara_0_416_0_2_2

New Line.l(r:p1rdm12830-p1rlv12548) Units=km Length=0.0483541 bus1=p1rdm12830.1.2 bus2=p1rlv12548.1.2 switch=n enabled=y phases=2 Linecode=1P_OH_AL_4/0_Zuzara_0_416_0_2_2

New Line.l(r:p1rdm12830-p1rdt6020lv) Units=km Length=0.0358863 bus1=p1rdt6020lv.1.2 bus2=p1rdm12830.1.2 switch=n enabled=y phases=2 Linecode=1P_OH_AL_4/0_Zuzara_0_416_0_2_2

New Line.l(r:p1rdt6026lv-p1rlv12516) Units=km Length=0.00827278 bus1=p1rdt6026lv.1.2 bus2=p1rlv12516.1.2 switch=n enabled=y phases=2 Linecode=1P_OH_AL_2/0_Rucina_0_416_0_2_2

New Line.l(r:p1rdt6039lv-p1rlv12539) Units=km Length=0.0606407 bus1=p1rdt6039lv.1.2 bus2=p1rlv12539.1.2 switch=n enabled=y phases=2 Linecode=1P_OH_AL_4/0_Zuzara_0_416_0_2_2

New Line.l(r:p1rdt6163lv-p1rlv12890) Units=km Length=0.0232205 bus1=p1rdt6163lv.1.2 bus2=p1rlv12890.1.2 switch=n enabled=y phases=2 Linecode=1P_OH_AL_2/0_Rucina_0_416_0_2_2

New Line.l(r:p1rdm13186-p1rlv12880) Units=km Length=0.0207597 bus1=p1rdm13186.1.2 bus2=p1rlv12880.1.2 switch=n enabled=y phases=2 Linecode=1P_OH_AL_2/0_Rucina_0_416_0_2_2

New Line.l(r:p1rdm13190-p1rlv12960) Units=km Length=0.053657 bus1=p1rdm13190.1.2 bus2=p1rlv12960.1.2 switch=n enabled=y phases=2 Linecode=1P_OH_AL_4/0_Zuzara_0_416_0_2_2

New Line.l(r:p1rdm13189-p1rlv12946) Units=km Length=0.0145924 bus1=p1rdm13189.1.2 bus2=p1rlv12946.1.2 switch=n enabled=y phases=2 Linecode=1P_OH_AL_2/0_Rucina_0_416_0_2_2

New Line.l(r:p1rdm13189-p1rdm13190) Units=km Length=0.019597000000000003 bus1=p1rdm13190.1.2 bus2=p1rdm13189.1.2 switch=n enabled=y phases=2 Linecode=1P_OH_AL_2/0_Rucina_0_416_0_2_2

New Line.l(r:p1rdm13186-p1rdm13190) Units=km Length=0.0195926 bus1=p1rdm13186.1.2 bus2=p1rdm13190.1.2 switch=n enabled=y phases=2 Linecode=1P_OH_AL_2/0_Rucina_0_416_0_2_2

New Line.l(r:p1rdm13186-p1rdt6163lv) Units=km Length=0.019597000000000003 bus1=p1rdt6163lv.1.2 bus2=p1rdm13186.1.2 switch=n enabled=y phases=2 Linecode=1P_OH_AL_2/0_Rucina_0_416_0_2_2

New Line.l(r:p1rdm13188-p1rlv12927) Units=km Length=0.00987136 bus1=p1rdm13188.1.2 bus2=p1rlv12927.1.2 switch=n enabled=y phases=2 Linecode=1P_OH_AL_2/0_Rucina_0_416_0_2_2

New Line.l(r:p1rdm13185-p1rlv12833) Units=km Length=0.047301 bus1=p1rdm13185.1.2 bus2=p1rlv12833.1.2 switch=n enabled=y phases=2 Linecode=1P_OH_AL_4/0_Zuzara_0_416_0_2_2

New Line.l(r:p1rdm13185-p1rdm13188) Units=km Length=0.019597000000000003 bus1=p1rdm13188.1.2 bus2=p1rdm13185.1.2 switch=n enabled=y phases=2 Linecode=1P_OH_AL_2/0_Rucina_0_416_0_2_2

New Line.l(r:p1rdm13188-p1rdt6163lv) Units=km Length=0.0195836 bus1=p1rdt6163lv.1.2 bus2=p1rdm13188.1.2 switch=n enabled=y phases=2 Linecode=1P_OH_AL_2/0_Rucina_0_416_0_2_2

New Line.l(r:p1rdt6359lv-p1rlv20845) Units=km Length=0.028923100000000004 bus1=p1rdt6359lv.1.2 bus2=p1rlv20845.1.2 switch=n enabled=y phases=2 Linecode=1P_OH_AL_4/0_Zuzara_0_416_0_2_2

New Line.l(r:p1rdt6359lv-p1rlv20846) Units=km Length=0.0106645 bus1=p1rdt6359lv.1.2 bus2=p1rlv20846.1.2 switch=n enabled=y phases=2 Linecode=1P_OH_AL_2/0_Rucina_0_416_0_2_2

New Line.l(r:p1rdt6359lv-p1rlv20857) Units=km Length=0.0426376 bus1=p1rdt6359lv.1.2 bus2=p1rlv20857.1.2 switch=n enabled=y phases=2 Linecode=1P_OH_AL_4/0_Zuzara_0_416_0_2_2

New Line.l(r:p1rdm13564-p1rlv13204) Units=km Length=0.0077701 bus1=p1rdm13564.1.2 bus2=p1rlv13204.1.2 switch=n enabled=y phases=2 Linecode=1P_OH_AL_2/0_Rucina_0_416_0_2_2

New Line.l(r:p1rdm13564-p1rdt6359lv) Units=km Length=0.0185917 bus1=p1rdt6359lv.1.2 bus2=p1rdm13564.1.2 switch=n enabled=y phases=2 Linecode=1P_OH_AL_2/0_Rucina_0_416_0_2_2

New Line.l(r:p1rdm13565-p1rlv20833) Units=km Length=0.0106574 bus1=p1rdm13565.1.2 bus2=p1rlv20833.1.2 switch=n enabled=y phases=2 Linecode=1P_OH_AL_2/0_Rucina_0_416_0_2_2

New Line.l(r:p1rdm13565-p1rdt6359lv) Units=km Length=0.0185918 bus1=p1rdt6359lv.1.2 bus2=p1rdm13565.1.2 switch=n enabled=y phases=2 Linecode=1P_OH_AL_2/0_Rucina_0_416_0_2_2

New Line.l(r:p1rdt6360lv-p1rlv13205) Units=km Length=0.014501 bus1=p1rdt6360lv.1.2 bus2=p1rlv13205.1.2 switch=n enabled=y phases=2 Linecode=1P_OH_AL_2/0_Rucina_0_416_0_2_2

New Line.l(r:p1rdt6360lv-p1rlv13207) Units=km Length=0.0294567 bus1=p1rdt6360lv.1.2 bus2=p1rlv13207.1.2 switch=n enabled=y phases=2 Linecode=1P_OH_AL_4/0_Zuzara_0_416_0_2_2

New Line.l(r:p1rdt6623lv-p1rlv13869) Units=km Length=0.00867524 bus1=p1rdt6623lv.1.2 bus2=p1rlv13869.1.2 switch=n enabled=y phases=2 Linecode=1P_OH_AL_2/0_Rucina_0_416_0_2_2

New Line.l(r:p1rdt6623lv-p1rlv13906) Units=km Length=0.00867524 bus1=p1rdt6623lv.1.2 bus2=p1rlv13906.1.2 switch=n enabled=y phases=2 Linecode=1P_OH_AL_2/0_Rucina_0_416_0_2_2

New Line.l(r:p1rdt6625lv-p1rlv13871) Units=km Length=0.0220833 bus1=p1rdt6625lv.1.2 bus2=p1rlv13871.1.2 switch=n enabled=y phases=2 Linecode=1P_OH_AL_2/0_Rucina_0_416_0_2_2

New Line.l(r:p1rdt6625lv-p1rlv13920) Units=km Length=0.0220833 bus1=p1rdt6625lv.1.2 bus2=p1rlv13920.1.2 switch=n enabled=y phases=2 Linecode=1P_OH_AL_2/0_Rucina_0_416_0_2_2

New Line.l(r:p1rdt6626lv-p1rlv13872) Units=km Length=0.0329373 bus1=p1rdt6626lv.1.2 bus2=p1rlv13872.1.2 switch=n enabled=y phases=2 Linecode=1P_OH_AL_4/0_Zuzara_0_416_0_2_2

New Line.l(r:p1rdt6626lv-p1rlv13892) Units=km Length=0.0485507 bus1=p1rdt6626lv.1.2 bus2=p1rlv13892.1.2 switch=n enabled=y phases=2 Linecode=1P_OH_AL_4/0_Zuzara_0_416_0_2_2

New Line.l(r:p1rdt6626lv-p1rlv13899) Units=km Length=0.0472448 bus1=p1rdt6626lv.1.2 bus2=p1rlv13899.1.2 switch=n enabled=y phases=2 Linecode=1P_OH_AL_4/0_Zuzara_0_416_0_2_2

New Line.l(r:p1rdt6626lv-p1rlv13905) Units=km Length=0.0580317 bus1=p1rdt6626lv.1.2 bus2=p1rlv13905.1.2 switch=n enabled=y phases=2 Linecode=1P_OH_AL_4/0_Zuzara_0_416_0_2_2

New Line.l(r:p1rdt6626lv-p1rlv13919) Units=km Length=0.08285880000000001 bus1=p1rdt6626lv.1.2 bus2=p1rlv13919.1.2 switch=n enabled=y phases=2 Linecode=1P_OH_AL_4/0_Zuzara_0_416_0_2_2

New Line.l(r:p1rdt6631lv-p1rlv13878) Units=km Length=0.001 bus1=p1rdt6631lv.1.2 bus2=p1rlv13878.1.2 switch=n enabled=y phases=2 Linecode=1P_OH_AL_4_Periwinkle_0_416_0_2_2

New Line.l(r:p1rdt6651lv-p1rlv13912) Units=km Length=0.001 bus1=p1rdt6651lv.1.2 bus2=p1rlv13912.1.2 switch=n enabled=y phases=2 Linecode=1P_OH_AL_4_Periwinkle_0_416_0_2_2

New Line.l(r:p1rdt6661lv-p1rlv13925) Units=km Length=0.001 bus1=p1rdt6661lv.1.2 bus2=p1rlv13925.1.2 switch=n enabled=y phases=2 Linecode=1P_OH_AL_4_Periwinkle_0_416_0_2_2

New Line.l(r:p1rdt6938lv-p1rlv14676) Units=km Length=0.0150068 bus1=p1rdt6938lv.1.2 bus2=p1rlv14676.1.2 switch=n enabled=y phases=2 Linecode=1P_OH_AL_2/0_Rucina_0_416_0_2_2

New Line.l(r:p1rdm15200-p1rlv14763) Units=km Length=0.0156517 bus1=p1rdm15200.1.2 bus2=p1rlv14763.1.2 switch=n enabled=y phases=2 Linecode=1P_OH_AL_2/0_Rucina_0_416_0_2_2

New Line.l(r:p1rdm15200-p1rdt6974lv) Units=km Length=0.0130713 bus1=p1rdt6974lv.1.2 bus2=p1rdm15200.1.2 switch=n enabled=y phases=2 Linecode=1P_OH_AL_2/0_Rucina_0_416_0_2_2

New Line.l(r:p1rdm15201-p1rlv14797) Units=km Length=0.020241 bus1=p1rdm15201.1.2 bus2=p1rlv14797.1.2 switch=n enabled=y phases=2 Linecode=1P_OH_AL_2/0_Rucina_0_416_0_2_2

New Line.l(r:p1rdm15201-p1rdt6974lv) Units=km Length=0.0204511 bus1=p1rdt6974lv.1.2 bus2=p1rdm15201.1.2 switch=n enabled=y phases=2 Linecode=1P_OH_AL_2/0_Rucina_0_416_0_2_2

New Line.l(r:p1rdt6984lv-p1rlv14798) Units=km Length=0.0076912 bus1=p1rdt6984lv.1.2 bus2=p1rlv14798.1.2 switch=n enabled=y phases=2 Linecode=1P_OH_AL_2/0_Rucina_0_416_0_2_2

New Line.l(r:p1rdt6986lv-p1rlv14815) Units=km Length=0.0083628 bus1=p1rdt6986lv.1.2 bus2=p1rlv14815.1.2 switch=n enabled=y phases=2 Linecode=1P_OH_AL_2/0_Rucina_0_416_0_2_2

New Line.l(r:p1rdt7142lv-p1rlv15270) Units=km Length=0.001 bus1=p1rdt7142lv.1.2 bus2=p1rlv15270.1.2 switch=n enabled=y phases=2 Linecode=1P_OH_AL_4_Periwinkle_0_416_0_2_2

New Line.l(r:p1rdt7143lv-p1rlv15271) Units=km Length=0.0863096 bus1=p1rdt7143lv.1.2 bus2=p1rlv15271.1.2 switch=n enabled=y phases=2 Linecode=1P_OH_AL_4/0_Zuzara_0_416_0_2_2

New Line.l(r:p1rdt7666lv-p1rlv16321) Units=km Length=0.0199261 bus1=p1rdt7666lv.1.2 bus2=p1rlv16321.1.2 switch=n enabled=y phases=2 Linecode=1P_OH_AL_2/0_Rucina_0_416_0_2_2

New Line.l(r:p1rdt7666lv-p1rlv16374) Units=km Length=0.0427522 bus1=p1rdt7666lv.1.2 bus2=p1rlv16374.1.2 switch=n enabled=y phases=2 Linecode=1P_OH_AL_4/0_Zuzara_0_416_0_2_2

New Line.l(r:p1rdm16802-p1rlv16353) Units=km Length=0.0529836 bus1=p1rdm16802.1.2 bus2=p1rlv16353.1.2 switch=n enabled=y phases=2 Linecode=1P_OH_AL_4/0_Zuzara_0_416_0_2_2

New Line.l(r:p1rdm16802-p1rlv16367) Units=km Length=0.01061 bus1=p1rdm16802.1.2 bus2=p1rlv16367.1.2 switch=n enabled=y phases=2 Linecode=1P_OH_AL_2/0_Rucina_0_416_0_2_2

New Line.l(r:p1rdm16802-p1rdt7666lv) Units=km Length=0.0183572 bus1=p1rdt7666lv.1.2 bus2=p1rdm16802.1.2 switch=n enabled=y phases=2 Linecode=1P_OH_AL_2/0_Rucina_0_416_0_2_2

New Line.l(r:p1rdt7674lv-p1rlv16338) Units=km Length=0.049932 bus1=p1rdt7674lv.1.2 bus2=p1rlv16338.1.2 switch=n enabled=y phases=2 Linecode=1P_OH_AL_4/0_Zuzara_0_416_0_2_2

New Line.l(r:p1rdt8199lv-p1rlv17390) Units=km Length=0.0167141 bus1=p1rdt8199lv.1.2 bus2=p1rlv17390.1.2 switch=n enabled=y phases=2 Linecode=1P_OH_AL_2/0_Rucina_0_416_0_2_2

New Line.l(r:p1rdt8252lv-p1rlv17484) Units=km Length=0.0231074 bus1=p1rdt8252lv.1.2 bus2=p1rlv17484.1.2 switch=n enabled=y phases=2 Linecode=1P_OH_AL_2/0_Rucina_0_416_0_2_2

New Line.l(r:p1rdm18060-p1rlv17479) Units=km Length=0.0276874 bus1=p1rdm18060.1.2 bus2=p1rlv17479.1.2 switch=n enabled=y phases=2 Linecode=1P_OH_AL_4/0_Zuzara_0_416_0_2_2

New Line.l(r:p1rdm18060-p1rdt8252lv) Units=km Length=0.0138305 bus1=p1rdt8252lv.1.2 bus2=p1rdm18060.1.2 switch=n enabled=y phases=2 Linecode=1P_OH_AL_2/0_Rucina_0_416_0_2_2

New Line.l(r:p1rdt8270lv-p1rlv17510) Units=km Length=0.00626286 bus1=p1rdt8270lv.1.2 bus2=p1rlv17510.1.2 switch=n enabled=y phases=2 Linecode=1P_OH_AL_2/0_Rucina_0_416_0_2_2

New Line.l(r:p1rdt8271lv-p1rlv17511) Units=km Length=0.00452729 bus1=p1rdt8271lv.1.2 bus2=p1rlv17511.1.2 switch=n enabled=y phases=2 Linecode=1P_OH_AL_2/0_Rucina_0_416_0_2_2

New Line.l(r:p1rdm18094-p1rlv17513) Units=km Length=0.005058430000000001 bus1=p1rdm18094.1.2 bus2=p1rlv17513.1.2 switch=n enabled=y phases=2 Linecode=1P_OH_AL_2/0_Rucina_0_416_0_2_2

New Line.l(r:p1rdm18094-p1rdt8273lv) Units=km Length=0.086872 bus1=p1rdt8273lv.1.2 bus2=p1rdm18094.1.2 switch=n enabled=y phases=2 Linecode=1P_OH_AL_4/0_Zuzara_0_416_0_2_2

New Line.l(r:p1rdm18096-p1rlv17517) Units=km Length=0.007541310000000001 bus1=p1rdm18096.1.2 bus2=p1rlv17517.1.2 switch=n enabled=y phases=2 Linecode=1P_OH_AL_2/0_Rucina_0_416_0_2_2

New Line.l(r:p1rdm18095-p1rlv17514) Units=km Length=0.0063386 bus1=p1rdm18095.1.2 bus2=p1rlv17514.1.2 switch=n enabled=y phases=2 Linecode=1P_OH_AL_2/0_Rucina_0_416_0_2_2

New Line.l(r:p1rdm18095-p1rdm18096) Units=km Length=0.0134436 bus1=p1rdm18096.1.2 bus2=p1rdm18095.1.2 switch=n enabled=y phases=2 Linecode=1P_OH_AL_2/0_Rucina_0_416_0_2_2

New Line.l(r:p1rdm18096-p1rdt8273lv) Units=km Length=0.00786527 bus1=p1rdt8273lv.1.2 bus2=p1rdm18096.1.2 switch=n enabled=y phases=2 Linecode=1P_OH_AL_2/0_Rucina_0_416_0_2_2

New Line.l(r:p1rdm19739-p1rlv19145) Units=km Length=0.0030051 bus1=p1rdm19739.1.2 bus2=p1rlv19145.1.2 switch=n enabled=y phases=2 Linecode=1P_UG_AL_1/0_Brenau_0_416_0_2_2

New Line.l(r:p1rdm19742-p1rlv24289) Units=km Length=0.00992561 bus1=p1rdm19742.1.2 bus2=p1rlv24289.1.2 switch=n enabled=y phases=2 Linecode=1P_UG_AL_1/0_Brenau_0_416_0_2_2

New Line.l(r:p1rdm19739-p1rdm19742) Units=km Length=0.0945543 bus1=p1rdm19739.1.2 bus2=p1rdm19742.1.2 switch=n enabled=y phases=2 Linecode=1P_UG_AL_1/0_Brenau_0_416_0_2_2

New Line.l(r:p1rdm19739-p1rdt8896lv) Units=km Length=0.00911542 bus1=p1rdt8896lv.1.2 bus2=p1rdm19739.1.2 switch=n enabled=y phases=2 Linecode=1P_UG_AL_1/0_Brenau_0_416_0_2_2

New Line.l(r:p1rdm19741-p1rlv23520) Units=km Length=0.00494095 bus1=p1rdm19741.1.2 bus2=p1rlv23520.1.2 switch=n enabled=y phases=2 Linecode=1P_UG_AL_1/0_Brenau_0_416_0_2_2

New Line.l(r:p1rdm19740-p1rlv23459) Units=km Length=0.0044109200000000005 bus1=p1rdm19740.1.2 bus2=p1rlv23459.1.2 switch=n enabled=y phases=2 Linecode=1P_UG_AL_1/0_Brenau_0_416_0_2_2

New Line.l(r:p1rdm19743-p1rlv24839) Units=km Length=0.012008 bus1=p1rdm19743.1.2 bus2=p1rlv24839.1.2 switch=n enabled=y phases=2 Linecode=1P_UG_AL_1/0_Brenau_0_416_0_2_2

New Line.l(r:p1rdm19740-p1rdm19743) Units=km Length=0.0351448 bus1=p1rdm19740.1.2 bus2=p1rdm19743.1.2 switch=n enabled=y phases=2 Linecode=1P_UG_AL_1/0_Brenau_0_416_0_2_2

New Line.l(r:p1rdm19740-p1rdm19741) Units=km Length=0.0182203 bus1=p1rdm19741.1.2 bus2=p1rdm19740.1.2 switch=n enabled=y phases=2 Linecode=1P_UG_AL_1/0_Brenau_0_416_0_2_2

New Line.l(r:p1rdm19741-p1rdt8896lv) Units=km Length=0.00910486 bus1=p1rdt8896lv.1.2 bus2=p1rdm19741.1.2 switch=n enabled=y phases=2 Linecode=1P_UG_AL_1/0_Brenau_0_416_0_2_2

New Line.l(r:p1rdm19745-p1rlv19150) Units=km Length=0.00436024 bus1=p1rdm19745.1.2 bus2=p1rlv19150.1.2 switch=n enabled=y phases=2 Linecode=1P_UG_AL_1/0_Brenau_0_416_0_2_2

New Line.l(r:p1rdm19745-p1rlv19162) Units=km Length=0.00350475 bus1=p1rdm19745.1.2 bus2=p1rlv19162.1.2 switch=n enabled=y phases=2 Linecode=1P_UG_AL_1/0_Brenau_0_416_0_2_2

New Line.l(r:p1rdm19744-p1rlv19148) Units=km Length=0.00441663 bus1=p1rdm19744.1.2 bus2=p1rlv19148.1.2 switch=n enabled=y phases=2 Linecode=1P_UG_AL_1/0_Brenau_0_416_0_2_2

New Line.l(r:p1rdm19744-p1rlv19154) Units=km Length=0.00530744 bus1=p1rdm19744.1.2 bus2=p1rlv19154.1.2 switch=n enabled=y phases=2 Linecode=1P_UG_AL_1/0_Brenau_0_416_0_2_2

New Line.l(r:p1rdm19744-p1rdm19745) Units=km Length=0.0175464 bus1=p1rdm19745.1.2 bus2=p1rdm19744.1.2 switch=n enabled=y phases=2 Linecode=1P_UG_AL_1/0_Brenau_0_416_0_2_2

New Line.l(r:p1rdm19745-p1rdt8897lv) Units=km Length=0.017884 bus1=p1rdt8897lv.1.2 bus2=p1rdm19745.1.2 switch=n enabled=y phases=2 Linecode=1P_UG_AL_1/0_Brenau_0_416_0_2_2

New Line.l(r:p1rdm19746-p1rlv19153) Units=km Length=0.00555023 bus1=p1rdm19746.1.2 bus2=p1rlv19153.1.2 switch=n enabled=y phases=2 Linecode=1P_UG_AL_1/0_Brenau_0_416_0_2_2

New Line.l(r:p1rdm19748-p1rlv19158) Units=km Length=0.00709606 bus1=p1rdm19748.1.2 bus2=p1rlv19158.1.2 switch=n enabled=y phases=2 Linecode=1P_UG_AL_1/0_Brenau_0_416_0_2_2

New Line.l(r:p1rdm19748-p1rlv23501) Units=km Length=0.00448563 bus1=p1rdm19748.1.2 bus2=p1rlv23501.1.2 switch=n enabled=y phases=2 Linecode=1P_UG_AL_1/0_Brenau_0_416_0_2_2

New Line.l(r:p1rdm19749-p1rlv19159) Units=km Length=0.00430615 bus1=p1rdm19749.1.2 bus2=p1rlv19159.1.2 switch=n enabled=y phases=2 Linecode=1P_UG_AL_1/0_Brenau_0_416_0_2_2

New Line.l(r:p1rdm19748-p1rdm19749) Units=km Length=0.00910544 bus1=p1rdm19748.1.2 bus2=p1rdm19749.1.2 switch=n enabled=y phases=2 Linecode=1P_UG_AL_1/0_Brenau_0_416_0_2_2

New Line.l(r:p1rdm19746-p1rdm19748) Units=km Length=0.00911542 bus1=p1rdm19746.1.2 bus2=p1rdm19748.1.2 switch=n enabled=y phases=2 Linecode=1P_UG_AL_1/0_Brenau_0_416_0_2_2

New Line.l(r:p1rdm19746-p1rdt8897lv) Units=km Length=0.00910486 bus1=p1rdt8897lv.1.2 bus2=p1rdm19746.1.2 switch=n enabled=y phases=2 Linecode=1P_UG_AL_1/0_Brenau_0_416_0_2_2

New Line.l(r:p1rdt8899lv-p1rlv24176) Units=km Length=0.0113724 bus1=p1rdt8899lv.1.2 bus2=p1rlv24176.1.2 switch=n enabled=y phases=2 Linecode=1P_UG_AL_1/0_Brenau_0_416_0_2_2

New Line.l(r:p1rdm19758-p1rlv24170) Units=km Length=0.0157264 bus1=p1rdm19758.1.2 bus2=p1rlv24170.1.2 switch=n enabled=y phases=2 Linecode=1P_UG_AL_1/0_Brenau_0_416_0_2_2

New Line.l(r:p1rdm19761-p1rlv24236) Units=km Length=0.015802 bus1=p1rdm19761.1.2 bus2=p1rlv24236.1.2 switch=n enabled=y phases=2 Linecode=1P_UG_AL_1/0_Brenau_0_416_0_2_2

New Line.l(r:p1rdm19762-p1rlv24238) Units=km Length=0.012857500000000001 bus1=p1rdm19762.1.2 bus2=p1rlv24238.1.2 switch=n enabled=y phases=2 Linecode=1P_UG_AL_1/0_Brenau_0_416_0_2_2

New Line.l(r:p1rdm19761-p1rdm19762) Units=km Length=0.019940800000000005 bus1=p1rdm19761.1.2 bus2=p1rdm19762.1.2 switch=n enabled=y phases=2 Linecode=1P_UG_AL_1/0_Brenau_0_416_0_2_2

New Line.l(r:p1rdm19758-p1rdm19761) Units=km Length=0.00997748 bus1=p1rdm19758.1.2 bus2=p1rdm19761.1.2 switch=n enabled=y phases=2 Linecode=1P_UG_AL_1/0_Brenau_0_416_0_2_2

New Line.l(r:p1rdm19758-p1rdt8899lv) Units=km Length=0.0299183 bus1=p1rdt8899lv.1.2 bus2=p1rdm19758.1.2 switch=n enabled=y phases=2 Linecode=1P_UG_AL_1/0_Brenau_0_416_0_2_2

New Line.l(r:p1rdm19763-p1rlv24255) Units=km Length=0.0130642 bus1=p1rdm19763.1.2 bus2=p1rlv24255.1.2 switch=n enabled=y phases=2 Linecode=1P_UG_AL_1/0_Brenau_0_416_0_2_2

New Line.l(r:p1rdm19767-p1rlv24535) Units=km Length=0.010955 bus1=p1rdm19767.1.2 bus2=p1rlv24535.1.2 switch=n enabled=y phases=2 Linecode=1P_UG_AL_1/0_Brenau_0_416_0_2_2

New Line.l(r:p1rdm19764-p1rlv24411) Units=km Length=0.0193909 bus1=p1rdm19764.1.2 bus2=p1rlv24411.1.2 switch=n enabled=y phases=2 Linecode=1P_UG_AL_1/0_Brenau_0_416_0_2_2

New Line.l(r:p1rdm19756-p1rlv19152) Units=km Length=0.0163924 bus1=p1rdm19756.1.2 bus2=p1rlv19152.1.2 switch=n enabled=y phases=2 Linecode=1P_UG_AL_1/0_Brenau_0_416_0_2_2

New Line.l(r:p1rdm19756-p1rdm19764) Units=km Length=0.0101547 bus1=p1rdm19764.1.2 bus2=p1rdm19756.1.2 switch=n enabled=y phases=2 Linecode=1P_UG_AL_1/0_Brenau_0_416_0_2_2

New Line.l(r:p1rdm19764-p1rdm19767) Units=km Length=0.011137 bus1=p1rdm19767.1.2 bus2=p1rdm19764.1.2 switch=n enabled=y phases=2 Linecode=1P_UG_AL_1/0_Brenau_0_416_0_2_2

New Line.l(r:p1rdm19763-p1rdm19767) Units=km Length=0.0171195 bus1=p1rdm19763.1.2 bus2=p1rdm19767.1.2 switch=n enabled=y phases=2 Linecode=1P_UG_AL_1/0_Brenau_0_416_0_2_2

New Line.l(r:p1rdm19763-p1rdt8899lv) Units=km Length=0.0169375 bus1=p1rdt8899lv.1.2 bus2=p1rdm19763.1.2 switch=n enabled=y phases=2 Linecode=1P_UG_AL_1/0_Brenau_0_416_0_2_2

New Line.l(r:p1rdm19765-p1rlv24476) Units=km Length=0.014001200000000002 bus1=p1rdm19765.1.2 bus2=p1rlv24476.1.2 switch=n enabled=y phases=2 Linecode=1P_UG_AL_1/0_Brenau_0_416_0_2_2

New Line.l(r:p1rdm19757-p1rlv23502) Units=km Length=0.0138831 bus1=p1rdm19757.1.2 bus2=p1rlv23502.1.2 switch=n enabled=y phases=2 Linecode=1P_UG_AL_1/0_Brenau_0_416_0_2_2

New Line.l(r:p1rdm19760-p1rlv24177) Units=km Length=0.01486 bus1=p1rdm19760.1.2 bus2=p1rlv24177.1.2 switch=n enabled=y phases=2 Linecode=1P_UG_AL_1/0_Brenau_0_416_0_2_2

New Line.l(r:p1rdm19766-p1rlv24484) Units=km Length=0.012902500000000003 bus1=p1rdm19766.1.2 bus2=p1rlv24484.1.2 switch=n enabled=y phases=2 Linecode=1P_UG_AL_1/0_Brenau_0_416_0_2_2

New Line.l(r:p1rdm19760-p1rdm19766) Units=km Length=0.00620013 bus1=p1rdm19760.1.2 bus2=p1rdm19766.1.2 switch=n enabled=y phases=2 Linecode=1P_UG_AL_1/0_Brenau_0_416_0_2_2

New Line.l(r:p1rdm19757-p1rdm19760) Units=km Length=0.0131119 bus1=p1rdm19757.1.2 bus2=p1rdm19760.1.2 switch=n enabled=y phases=2 Linecode=1P_UG_AL_1/0_Brenau_0_416_0_2_2

New Line.l(r:p1rdm19757-p1rdm19765) Units=km Length=0.006911770000000001 bus1=p1rdm19765.1.2 bus2=p1rdm19757.1.2 switch=n enabled=y phases=2 Linecode=1P_UG_AL_1/0_Brenau_0_416_0_2_2

New Line.l(r:p1rdm19765-p1rdt8899lv) Units=km Length=0.0168736 bus1=p1rdt8899lv.1.2 bus2=p1rdm19765.1.2 switch=n enabled=y phases=2 Linecode=1P_UG_AL_1/0_Brenau_0_416_0_2_2

New Line.l(r:p1rdt8900lv-p1rlv24213) Units=km Length=0.0291668 bus1=p1rdt8900lv.1.2 bus2=p1rlv24213.1.2 switch=n enabled=y phases=2 Linecode=1P_UG_AL_1/0_Brenau_0_416_0_2_2

New Line.l(r:p1rdm19768-p1rlv19155) Units=km Length=0.0189192 bus1=p1rdm19768.1.2 bus2=p1rlv19155.1.2 switch=n enabled=y phases=2 Linecode=1P_UG_AL_1/0_Brenau_0_416_0_2_2

New Line.l(r:p1rdm19768-p1rdt8900lv) Units=km Length=0.00616747 bus1=p1rdt8900lv.1.2 bus2=p1rdm19768.1.2 switch=n enabled=y phases=2 Linecode=1P_UG_AL_1/0_Brenau_0_416_0_2_2

New Line.l(r:p1rdt8903lv-p1rlv19167) Units=km Length=0.008418560000000002 bus1=p1rdt8903lv.1.2 bus2=p1rlv19167.1.2 switch=n enabled=y phases=2 Linecode=1P_OH_AL_2/0_Rucina_0_416_0_2_2

New Line.l(r:p1rdt8903lv-p1rlv19178) Units=km Length=0.00763157 bus1=p1rdt8903lv.1.2 bus2=p1rlv19178.1.2 switch=n enabled=y phases=2 Linecode=1P_OH_AL_2/0_Rucina_0_416_0_2_2

New Line.l(r:p1rdt8906lv-p1rlv19192) Units=km Length=0.006896930000000001 bus1=p1rdt8906lv.1.2 bus2=p1rlv19192.1.2 switch=n enabled=y phases=2 Linecode=1P_OH_AL_2/0_Rucina_0_416_0_2_2

New Line.l(r:p1rdm19782-p1rlv19170) Units=km Length=0.031579 bus1=p1rdm19782.1.2 bus2=p1rlv19170.1.2 switch=n enabled=y phases=2 Linecode=1P_OH_AL_4/0_Zuzara_0_416_0_2_2

New Line.l(r:p1rdm19783-p1rlv19175) Units=km Length=0.054253 bus1=p1rdm19783.1.2 bus2=p1rlv19175.1.2 switch=n enabled=y phases=2 Linecode=1P_OH_AL_4/0_Zuzara_0_416_0_2_2

New Line.l(r:p1rdm19782-p1rdm19783) Units=km Length=0.0156771 bus1=p1rdm19782.1.2 bus2=p1rdm19783.1.2 switch=n enabled=y phases=2 Linecode=1P_OH_AL_2/0_Rucina_0_416_0_2_2

New Line.l(r:p1rdm19782-p1rdt8906lv) Units=km Length=0.0282256 bus1=p1rdt8906lv.1.2 bus2=p1rdm19782.1.2 switch=n enabled=y phases=2 Linecode=1P_OH_AL_4/0_Zuzara_0_416_0_2_2

New Line.l(r:p1rdt8909lv-p1rlv19177) Units=km Length=0.0318812 bus1=p1rdt8909lv.1.2 bus2=p1rlv19177.1.2 switch=n enabled=y phases=2 Linecode=1P_OH_AL_4/0_Zuzara_0_416_0_2_2

New Line.l(r:p1rdm19791-p1rlv19182) Units=km Length=0.00848972 bus1=p1rdm19791.1.2 bus2=p1rlv19182.1.2 switch=n enabled=y phases=2 Linecode=1P_OH_AL_2/0_Rucina_0_416_0_2_2

New Line.l(r:p1rdm19791-p1rdt8909lv) Units=km Length=0.0285458 bus1=p1rdt8909lv.1.2 bus2=p1rdm19791.1.2 switch=n enabled=y phases=2 Linecode=1P_OH_AL_4/0_Zuzara_0_416_0_2_2

New Line.l(r:p1rdm19792-p1rlv19195) Units=km Length=0.019574300000000003 bus1=p1rdm19792.1.2 bus2=p1rlv19195.1.2 switch=n enabled=y phases=2 Linecode=1P_OH_AL_2/0_Rucina_0_416_0_2_2

New Line.l(r:p1rdm19792-p1rdt8909lv) Units=km Length=0.0178491 bus1=p1rdt8909lv.1.2 bus2=p1rdm19792.1.2 switch=n enabled=y phases=2 Linecode=1P_OH_AL_2/0_Rucina_0_416_0_2_2

New Line.l(r:p1rdt8912lv-p1rlv19185) Units=km Length=0.0294306 bus1=p1rdt8912lv.1.2 bus2=p1rlv19185.1.2 switch=n enabled=y phases=2 Linecode=1P_OH_AL_4/0_Zuzara_0_416_0_2_2

New Line.l(r:p1rdt8913lv-p1rlv19196) Units=km Length=0.0183966 bus1=p1rdt8913lv.1.2 bus2=p1rlv19196.1.2 switch=n enabled=y phases=2 Linecode=1P_OH_AL_2/0_Rucina_0_416_0_2_2

New Line.l(r:p1rdm19797-p1rlv19186) Units=km Length=0.0141088 bus1=p1rdm19797.1.2 bus2=p1rlv19186.1.2 switch=n enabled=y phases=2 Linecode=1P_OH_AL_2/0_Rucina_0_416_0_2_2

New Line.l(r:p1rdm19797-p1rdt8913lv) Units=km Length=0.00402604 bus1=p1rdt8913lv.1.2 bus2=p1rdm19797.1.2 switch=n enabled=y phases=2 Linecode=1P_OH_AL_2/0_Rucina_0_416_0_2_2

New Line.l(r:p1rdt8914lv-p1rlv20927) Units=km Length=0.0197301 bus1=p1rdt8914lv.1.2 bus2=p1rlv20927.1.2 switch=n enabled=y phases=2 Linecode=1P_OH_AL_2/0_Rucina_0_416_0_2_2

New Line.l(r:p1rdm19800-p1rlv20906) Units=km Length=0.009383760000000001 bus1=p1rdm19800.1.2 bus2=p1rlv20906.1.2 switch=n enabled=y phases=2 Linecode=1P_OH_AL_2/0_Rucina_0_416_0_2_2

New Line.l(r:p1rdm19800-p1rlv20923) Units=km Length=0.0158367 bus1=p1rdm19800.1.2 bus2=p1rlv20923.1.2 switch=n enabled=y phases=2 Linecode=1P_OH_AL_2/0_Rucina_0_416_0_2_2

New Line.l(r:p1rdm19799-p1rlv19187) Units=km Length=0.0139717 bus1=p1rdm19799.1.2 bus2=p1rlv19187.1.2 switch=n enabled=y phases=2 Linecode=1P_OH_AL_2/0_Rucina_0_416_0_2_2

New Line.l(r:p1rdm19799-p1rdm19800) Units=km Length=0.014481000000000003 bus1=p1rdm19800.1.2 bus2=p1rdm19799.1.2 switch=n enabled=y phases=2 Linecode=1P_OH_AL_2/0_Rucina_0_416_0_2_2

New Line.l(r:p1rdm19800-p1rdt8914lv) Units=km Length=0.0166346 bus1=p1rdt8914lv.1.2 bus2=p1rdm19800.1.2 switch=n enabled=y phases=2 Linecode=1P_OH_AL_2/0_Rucina_0_416_0_2_2

New Line.l(r:p1rdm19802-p1rlv20926) Units=km Length=0.010220000000000002 bus1=p1rdm19802.1.2 bus2=p1rlv20926.1.2 switch=n enabled=y phases=2 Linecode=1P_OH_AL_2/0_Rucina_0_416_0_2_2

New Line.l(r:p1rdm19802-p1rdt8914lv) Units=km Length=0.049935200000000006 bus1=p1rdt8914lv.1.2 bus2=p1rdm19802.1.2 switch=n enabled=y phases=2 Linecode=1P_OH_AL_4/0_Zuzara_0_416_0_2_2

New Line.l(r:p1rdt9171lv-p1rlv19832) Units=km Length=0.0175591 bus1=p1rdt9171lv.1.2 bus2=p1rlv19832.1.2 switch=n enabled=y phases=2 Linecode=1P_OH_AL_2/0_Rucina_0_416_0_2_2

New Line.l(r:p1rdm20395-p1rlv19845) Units=km Length=0.010360200000000002 bus1=p1rdm20395.1.2 bus2=p1rlv19845.1.2 switch=n enabled=y phases=2 Linecode=1P_OH_AL_2/0_Rucina_0_416_0_2_2

New Line.l(r:p1rdm20395-p1rdt9171lv) Units=km Length=0.0362743 bus1=p1rdt9171lv.1.2 bus2=p1rdm20395.1.2 switch=n enabled=y phases=2 Linecode=1P_OH_AL_4/0_Zuzara_0_416_0_2_2

New Line.l(r:p1rdm20396-p1rlv19851) Units=km Length=0.0398641 bus1=p1rdm20396.1.2 bus2=p1rlv19851.1.2 switch=n enabled=y phases=2 Linecode=1P_OH_AL_4/0_Zuzara_0_416_0_2_2

New Line.l(r:p1rdm20396-p1rlv19910) Units=km Length=0.0113395 bus1=p1rdm20396.1.2 bus2=p1rlv19910.1.2 switch=n enabled=y phases=2 Linecode=1P_OH_AL_2/0_Rucina_0_416_0_2_2

New Line.l(r:p1rdm20396-p1rdt9171lv) Units=km Length=0.0142903 bus1=p1rdt9171lv.1.2 bus2=p1rdm20396.1.2 switch=n enabled=y phases=2 Linecode=1P_OH_AL_2/0_Rucina_0_416_0_2_2

New Line.l(r:p1rdt9179lv-p1rlv19870) Units=km Length=0.014285400000000002 bus1=p1rdt9179lv.1.2 bus2=p1rlv19870.1.2 switch=n enabled=y phases=2 Linecode=1P_OH_AL_2/0_Rucina_0_416_0_2_2
