New Load.load_p1rlv10789 conn=wye bus1=p1rlv10789.1.2 kV=0.2080002494301389 Vminpu=0.8 Vmaxpu=1.2 model=1 kW=1.9700200000000003 kvar=0.4000296226222012 Phases=2

New Load.load_p1rlv10838 conn=wye bus1=p1rlv10838.1.2 kV=0.2080002494301389 Vminpu=0.8 Vmaxpu=1.2 model=1 kW=7.66008 kvar=1.5514329688562003 Phases=2

New Load.load_p1rlv10842 conn=wye bus1=p1rlv10842.1.2 kV=0.2080002494301389 Vminpu=0.8 Vmaxpu=1.2 model=1 kW=0.880009 kvar=0.1800701458051301 Phases=2

New Load.load_p1rlv10870 conn=wye bus1=p1rlv10870.1.2 kV=0.2080002494301389 Vminpu=0.8 Vmaxpu=1.2 model=1 kW=0.800008 kvar=0.15991959944678147 Phases=2

New Load.load_p1rlv10875 conn=wye bus1=p1rlv10875.1.2 kV=0.2080002494301389 Vminpu=0.8 Vmaxpu=1.2 model=1 kW=3.13003 kvar=0.6306495704677809 Phases=2

New Load.load_p1rlv10906 conn=wye bus1=p1rlv10906.1.2 kV=0.2080002494301389 Vminpu=0.8 Vmaxpu=1.2 model=1 kW=0.420004 kvar=0.0900059182727255 Phases=2

New Load.load_p1rlv10962 conn=wye bus1=p1rlv10962.1.2 kV=0.2080002494301389 Vminpu=0.8 Vmaxpu=1.2 model=1 kW=1.60002 kvar=0.529865022157608 Phases=2

New Load.load_p1rlv10967 conn=wye bus1=p1rlv10967.1.2 kV=0.2080002494301389 Vminpu=0.8 Vmaxpu=1.2 model=1 kW=1.22001 kvar=0.40013137987912967 Phases=2

New Load.load_p1rlv10991 conn=wye bus1=p1rlv10991.1.2 kV=0.2080002494301389 Vminpu=0.8 Vmaxpu=1.2 model=1 kW=2.94003 kvar=0.6000682817178988 Phases=2

New Load.load_p1rlv11001 conn=wye bus1=p1rlv11001.1.2 kV=0.2080002494301389 Vminpu=0.8 Vmaxpu=1.2 model=1 kW=2.60003 kvar=0.8499665108742557 Phases=2

New Load.load_p1rlv11073 conn=wye bus1=p1rlv11073.1.2 kV=0.2080002494301389 Vminpu=0.8 Vmaxpu=1.2 model=1 kW=1.38001 kvar=0.28022298226153225 Phases=2

New Load.load_p1rlv11081 conn=wye bus1=p1rlv11081.1.2 kV=0.2080002494301389 Vminpu=0.8 Vmaxpu=1.2 model=1 kW=1.60002 kvar=0.31983999848356426 Phases=2

New Load.load_p1rlv11087 conn=wye bus1=p1rlv11087.1.2 kV=0.2080002494301389 Vminpu=0.8 Vmaxpu=1.2 model=1 kW=6.00006 kvar=1.9699943889383298 Phases=2

New Load.load_p1rlv11088 conn=wye bus1=p1rlv11088.1.2 kV=0.2080002494301389 Vminpu=0.8 Vmaxpu=1.2 model=1 kW=1.7300200000000001 kvar=0.5698569511572062 Phases=2

New Load.load_p1rlv11104 conn=wye bus1=p1rlv11104.1.2 kV=0.2080002494301389 Vminpu=0.8 Vmaxpu=1.2 model=1 kW=2.14002 kvar=0.4300500713784323 Phases=2

New Load.load_p1rlv12509 conn=wye bus1=p1rlv12509.1.2 kV=0.2080002494301389 Vminpu=0.8 Vmaxpu=1.2 model=1 kW=1.25001 kvar=0.40997059545635767 Phases=2

New Load.load_p1rlv12513 conn=wye bus1=p1rlv12513.1.2.3 kV=0.48 Vminpu=0.8 Vmaxpu=1.2 model=1 kW=20.2102 kvar=6.642771502485861 Phases=3

New Load.load_p1rlv12514 conn=wye bus1=p1rlv12514.1.2 kV=0.2080002494301389 Vminpu=0.8 Vmaxpu=1.2 model=1 kW=1.91002 kvar=0.6298242311465005 Phases=2

New Load.load_p1rlv12516 conn=wye bus1=p1rlv12516.1.2 kV=0.2080002494301389 Vminpu=0.8 Vmaxpu=1.2 model=1 kW=3.55004 kvar=1.170616649846244 Phases=2

New Load.load_p1rlv12530 conn=wye bus1=p1rlv12530.1.2 kV=0.2080002494301389 Vminpu=0.8 Vmaxpu=1.2 model=1 kW=8.37008 kvar=2.751112255075499 Phases=2

New Load.load_p1rlv12532 conn=wye bus1=p1rlv12532.1.2 kV=0.2080002494301389 Vminpu=0.8 Vmaxpu=1.2 model=1 kW=3.9600400000000002 kvar=1.3001964280309437 Phases=2

New Load.load_p1rlv12539 conn=wye bus1=p1rlv12539.1.2 kV=0.2080002494301389 Vminpu=0.8 Vmaxpu=1.2 model=1 kW=1.86002 kvar=0.6100379252651853 Phases=2

New Load.load_p1rlv12546 conn=wye bus1=p1rlv12546.1.2 kV=0.2080002494301389 Vminpu=0.8 Vmaxpu=1.2 model=1 kW=1.3000100000000003 kvar=0.43005421137611194 Phases=2

New Load.load_p1rlv12548 conn=wye bus1=p1rlv12548.1.2 kV=0.2080002494301389 Vminpu=0.8 Vmaxpu=1.2 model=1 kW=2.81003 kvar=0.9196174662748142 Phases=2

New Load.load_p1rlv12833 conn=wye bus1=p1rlv12833.1.2 kV=0.2080002494301389 Vminpu=0.8 Vmaxpu=1.2 model=1 kW=1.16001 kvar=0.2397656497872118 Phases=2

New Load.load_p1rlv12880 conn=wye bus1=p1rlv12880.1.2 kV=0.2080002494301389 Vminpu=0.8 Vmaxpu=1.2 model=1 kW=1.89002 kvar=0.37981104658211823 Phases=2

New Load.load_p1rlv12890 conn=wye bus1=p1rlv12890.1.2 kV=0.2080002494301389 Vminpu=0.8 Vmaxpu=1.2 model=1 kW=0.580006 kvar=0.11988303158634973 Phases=2

New Load.load_p1rlv12927 conn=wye bus1=p1rlv12927.1.2 kV=0.2080002494301389 Vminpu=0.8 Vmaxpu=1.2 model=1 kW=0.730007 kvar=0.150133381967663 Phases=2

New Load.load_p1rlv12946 conn=wye bus1=p1rlv12946.1.2 kV=0.2080002494301389 Vminpu=0.8 Vmaxpu=1.2 model=1 kW=4.91005 kvar=0.9995943979048163 Phases=2

New Load.load_p1rlv12960 conn=wye bus1=p1rlv12960.1.2 kV=0.2080002494301389 Vminpu=0.8 Vmaxpu=1.2 model=1 kW=2.85003 kvar=0.5802128332421591 Phases=2

New Load.load_p1rlv13204 conn=wye bus1=p1rlv13204.1.2 kV=0.2080002494301389 Vminpu=0.8 Vmaxpu=1.2 model=1 kW=8.790090000000001 kvar=2.8891628660916733 Phases=2

New Load.load_p1rlv13205 conn=wye bus1=p1rlv13205.1.2 kV=0.2080002494301389 Vminpu=0.8 Vmaxpu=1.2 model=1 kW=1.86002 kvar=0.6100379252651853 Phases=2

New Load.load_p1rlv13206 conn=wye bus1=p1rlv13206.1.2.3 kV=0.48 Vminpu=0.8 Vmaxpu=1.2 model=1 kW=30.1103 kvar=9.896777012167123 Phases=3

New Load.load_p1rlv13207 conn=wye bus1=p1rlv13207.1.2 kV=0.2080002494301389 Vminpu=0.8 Vmaxpu=1.2 model=1 kW=1.50002 kvar=0.4898316283880489 Phases=2

New Load.load_p1rlv13869 conn=wye bus1=p1rlv13869.1.2 kV=0.2080002494301389 Vminpu=0.8 Vmaxpu=1.2 model=1 kW=0.3000030000000001 kvar=0.0999833933383273 Phases=2

New Load.load_p1rlv13871 conn=wye bus1=p1rlv13871.1.2 kV=0.2080002494301389 Vminpu=0.8 Vmaxpu=1.2 model=1 kW=0.6600070000000001 kvar=0.21996359865417808 Phases=2

New Load.load_p1rlv13872 conn=wye bus1=p1rlv13872.1.2 kV=0.2080002494301389 Vminpu=0.8 Vmaxpu=1.2 model=1 kW=1.90002 kvar=0.6197740383434039 Phases=2

New Load.load_p1rlv13878 conn=wye bus1=p1rlv13878.1.2 kV=0.2080002494301389 Vminpu=0.8 Vmaxpu=1.2 model=1 kW=1.04001 kvar=0.3399859505368533 Phases=2

New Load.load_p1rlv13892 conn=wye bus1=p1rlv13892.1.2 kV=0.2080002494301389 Vminpu=0.8 Vmaxpu=1.2 model=1 kW=5.50006 kvar=1.8097332767634438 Phases=2

New Load.load_p1rlv13899 conn=wye bus1=p1rlv13899.1.2 kV=0.2080002494301389 Vminpu=0.8 Vmaxpu=1.2 model=1 kW=1.63002 kvar=0.5397998671375009 Phases=2

New Load.load_p1rlv13905 conn=wye bus1=p1rlv13905.1.2 kV=0.2080002494301389 Vminpu=0.8 Vmaxpu=1.2 model=1 kW=13.6901 kvar=4.499718268309153 Phases=2

New Load.load_p1rlv13906 conn=wye bus1=p1rlv13906.1.2 kV=0.2080002494301389 Vminpu=0.8 Vmaxpu=1.2 model=1 kW=4.44004 kvar=1.4593705743583594 Phases=2

New Load.load_p1rlv13912 conn=wye bus1=p1rlv13912.1.2 kV=0.2080002494301389 Vminpu=0.8 Vmaxpu=1.2 model=1 kW=1.55002 kvar=0.5100167586624277 Phases=2

New Load.load_p1rlv13919 conn=wye bus1=p1rlv13919.1.2 kV=0.2080002494301389 Vminpu=0.8 Vmaxpu=1.2 model=1 kW=0.620006 kvar=0.20002114980484142 Phases=2

New Load.load_p1rlv13920 conn=wye bus1=p1rlv13920.1.2 kV=0.2080002494301389 Vminpu=0.8 Vmaxpu=1.2 model=1 kW=5.97006 kvar=1.9601445154923727 Phases=2

New Load.load_p1rlv13925 conn=wye bus1=p1rlv13925.1.2 kV=0.2080002494301389 Vminpu=0.8 Vmaxpu=1.2 model=1 kW=0.620006 kvar=0.20002114980484142 Phases=2

New Load.load_p1rlv14676 conn=wye bus1=p1rlv14676.1.2 kV=0.2080002494301389 Vminpu=0.8 Vmaxpu=1.2 model=1 kW=0.240002 kvar=0.0799865813608038 Phases=2

New Load.load_p1rlv14763 conn=wye bus1=p1rlv14763.1.2 kV=0.2080002494301389 Vminpu=0.8 Vmaxpu=1.2 model=1 kW=1.91002 kvar=0.6298242311465005 Phases=2

New Load.load_p1rlv14797 conn=wye bus1=p1rlv14797.1.2 kV=0.2080002494301389 Vminpu=0.8 Vmaxpu=1.2 model=1 kW=1.71002 kvar=0.5602338750756536 Phases=2

New Load.load_p1rlv14798 conn=wye bus1=p1rlv14798.1.2 kV=0.2080002494301389 Vminpu=0.8 Vmaxpu=1.2 model=1 kW=5.54006 kvar=1.8209296637372128 Phases=2

New Load.load_p1rlv14815 conn=wye bus1=p1rlv14815.1.2 kV=0.2080002494301389 Vminpu=0.8 Vmaxpu=1.2 model=1 kW=2.24002 kvar=0.7402258301206796 Phases=2

New Load.load_p1rlv15270 conn=wye bus1=p1rlv15270.1.2 kV=0.2080002494301389 Vminpu=0.8 Vmaxpu=1.2 model=1 kW=3.29003 kvar=0.6697886084538411 Phases=2

New Load.load_p1rlv15271 conn=wye bus1=p1rlv15271.1.2 kV=0.2080002494301389 Vminpu=0.8 Vmaxpu=1.2 model=1 kW=10.5801 kvar=2.148380935373829 Phases=2

New Load.load_p1rlv16321 conn=wye bus1=p1rlv16321.1.2 kV=0.2080002494301389 Vminpu=0.8 Vmaxpu=1.2 model=1 kW=0.310003 kvar=0.10001057490242071 Phases=2

New Load.load_p1rlv16338 conn=wye bus1=p1rlv16338.1.2 kV=0.2080002494301389 Vminpu=0.8 Vmaxpu=1.2 model=1 kW=5.33005 kvar=1.7500105986874708 Phases=2

New Load.load_p1rlv16353 conn=wye bus1=p1rlv16353.1.2 kV=0.2080002494301389 Vminpu=0.8 Vmaxpu=1.2 model=1 kW=0.940009 kvar=0.3099655740231992 Phases=2

New Load.load_p1rlv16367 conn=wye bus1=p1rlv16367.1.2 kV=0.2080002494301389 Vminpu=0.8 Vmaxpu=1.2 model=1 kW=2.17002 kvar=0.7101661883202929 Phases=2

New Load.load_p1rlv16374 conn=wye bus1=p1rlv16374.1.2 kV=0.2080002494301389 Vminpu=0.8 Vmaxpu=1.2 model=1 kW=4.90005 kvar=1.6105685495816884 Phases=2

New Load.load_p1rlv17390 conn=wye bus1=p1rlv17390.1.2 kV=0.2080002494301389 Vminpu=0.8 Vmaxpu=1.2 model=1 kW=2.00002 kvar=0.6602093323043688 Phases=2

New Load.load_p1rlv17479 conn=wye bus1=p1rlv17479.1.2 kV=0.2080002494301389 Vminpu=0.8 Vmaxpu=1.2 model=1 kW=0.500005 kvar=0.09994974965423842 Phases=2

New Load.load_p1rlv17484 conn=wye bus1=p1rlv17484.1.2 kV=0.2080002494301389 Vminpu=0.8 Vmaxpu=1.2 model=1 kW=1.25001 kvar=0.40997059545635767 Phases=2

New Load.load_p1rlv17510 conn=wye bus1=p1rlv17510.1.2 kV=0.2080002494301389 Vminpu=0.8 Vmaxpu=1.2 model=1 kW=0.630006 kvar=0.20996502602809375 Phases=2

New Load.load_p1rlv17511 conn=wye bus1=p1rlv17511.1.2 kV=0.2080002494301389 Vminpu=0.8 Vmaxpu=1.2 model=1 kW=2.58003 kvar=0.8498445276321237 Phases=2

New Load.load_p1rlv17513 conn=wye bus1=p1rlv17513.1.2 kV=0.2080002494301389 Vminpu=0.8 Vmaxpu=1.2 model=1 kW=1.64002 kvar=0.5402115565350929 Phases=2

New Load.load_p1rlv17514 conn=wye bus1=p1rlv17514.1.2 kV=0.2080002494301389 Vminpu=0.8 Vmaxpu=1.2 model=1 kW=1.53002 kvar=0.5001733676026157 Phases=2

New Load.load_p1rlv17517 conn=wye bus1=p1rlv17517.1.2 kV=0.2080002494301389 Vminpu=0.8 Vmaxpu=1.2 model=1 kW=0.910009 kvar=0.30007315041800386 Phases=2

New Load.load_p1rlv19145 conn=wye bus1=p1rlv19145.1.2 kV=0.2080002494301389 Vminpu=0.8 Vmaxpu=1.2 model=1 kW=1.17001 kvar=0.24001843710200912 Phases=2

New Load.load_p1rlv19148 conn=wye bus1=p1rlv19148.1.2 kV=0.2080002494301389 Vminpu=0.8 Vmaxpu=1.2 model=1 kW=1.26001 kvar=0.2597851280568115 Phases=2

New Load.load_p1rlv19150 conn=wye bus1=p1rlv19150.1.2 kV=0.2080002494301389 Vminpu=0.8 Vmaxpu=1.2 model=1 kW=1.58002 kvar=0.32000907555171404 Phases=2

New Load.load_p1rlv19152 conn=wye bus1=p1rlv19152.1.2 kV=0.2080002494301389 Vminpu=0.8 Vmaxpu=1.2 model=1 kW=1.79002 kvar=0.35971543666359257 Phases=2

New Load.load_p1rlv19153 conn=wye bus1=p1rlv19153.1.2 kV=0.2080002494301389 Vminpu=0.8 Vmaxpu=1.2 model=1 kW=1.23001 kvar=0.24976418316643162 Phases=2

New Load.load_p1rlv19154 conn=wye bus1=p1rlv19154.1.2 kV=0.2080002494301389 Vminpu=0.8 Vmaxpu=1.2 model=1 kW=2.02002 kvar=0.4101825556539014 Phases=2

New Load.load_p1rlv19155 conn=wye bus1=p1rlv19155.1.2 kV=0.2080002494301389 Vminpu=0.8 Vmaxpu=1.2 model=1 kW=2.16002 kvar=0.43973969539258484 Phases=2

New Load.load_p1rlv19158 conn=wye bus1=p1rlv19158.1.2 kV=0.2080002494301389 Vminpu=0.8 Vmaxpu=1.2 model=1 kW=1.09001 kvar=0.22019269518951132 Phases=2

New Load.load_p1rlv19159 conn=wye bus1=p1rlv19159.1.2 kV=0.2080002494301389 Vminpu=0.8 Vmaxpu=1.2 model=1 kW=1.7400200000000001 kvar=0.3496676317043298 Phases=2

New Load.load_p1rlv19162 conn=wye bus1=p1rlv19162.1.2 kV=0.2080002494301389 Vminpu=0.8 Vmaxpu=1.2 model=1 kW=1.51002 kvar=0.30976883991827064 Phases=2

New Load.load_p1rlv19167 conn=wye bus1=p1rlv19167.1.2 kV=0.2080002494301389 Vminpu=0.8 Vmaxpu=1.2 model=1 kW=0.830008 kvar=0.27015044132679694 Phases=2

New Load.load_p1rlv19170 conn=wye bus1=p1rlv19170.1.2 kV=0.2080002494301389 Vminpu=0.8 Vmaxpu=1.2 model=1 kW=3.44003 kvar=1.1294620050098705 Phases=2

New Load.load_p1rlv19175 conn=wye bus1=p1rlv19175.1.2 kV=0.2080002494301389 Vminpu=0.8 Vmaxpu=1.2 model=1 kW=1.63002 kvar=0.5397998671375009 Phases=2

New Load.load_p1rlv19177 conn=wye bus1=p1rlv19177.1.2 kV=0.2080002494301389 Vminpu=0.8 Vmaxpu=1.2 model=1 kW=9.06009 kvar=2.9811213629436235 Phases=2

New Load.load_p1rlv19178 conn=wye bus1=p1rlv19178.1.2 kV=0.2080002494301389 Vminpu=0.8 Vmaxpu=1.2 model=1 kW=1.27001 kvar=0.25987334887935604 Phases=2

New Load.load_p1rlv19182 conn=wye bus1=p1rlv19182.1.2 kV=0.2080002494301389 Vminpu=0.8 Vmaxpu=1.2 model=1 kW=2.28002 kvar=0.46058636974522216 Phases=2

New Load.load_p1rlv19185 conn=wye bus1=p1rlv19185.1.2 kV=0.2080002494301389 Vminpu=0.8 Vmaxpu=1.2 model=1 kW=2.25002 kvar=0.7403439357722067 Phases=2

New Load.load_p1rlv19186 conn=wye bus1=p1rlv19186.1.2 kV=0.2080002494301389 Vminpu=0.8 Vmaxpu=1.2 model=1 kW=0.730007 kvar=0.23994169756930633 Phases=2

New Load.load_p1rlv19187 conn=wye bus1=p1rlv19187.1.2 kV=0.2080002494301389 Vminpu=0.8 Vmaxpu=1.2 model=1 kW=1.77002 kvar=0.36034298554586675 Phases=2

New Load.load_p1rlv19192 conn=wye bus1=p1rlv19192.1.2 kV=0.2080002494301389 Vminpu=0.8 Vmaxpu=1.2 model=1 kW=12.340100000000001 kvar=2.499300004566845 Phases=2

New Load.load_p1rlv19195 conn=wye bus1=p1rlv19195.1.2 kV=0.2080002494301389 Vminpu=0.8 Vmaxpu=1.2 model=1 kW=0.510005 kvar=0.1699717353476919 Phases=2

New Load.load_p1rlv19196 conn=wye bus1=p1rlv19196.1.2 kV=0.2080002494301389 Vminpu=0.8 Vmaxpu=1.2 model=1 kW=2.00002 kvar=0.6602093323043688 Phases=2

New Load.load_p1rlv19832 conn=wye bus1=p1rlv19832.1.2 kV=0.2080002494301389 Vminpu=0.8 Vmaxpu=1.2 model=1 kW=1.70002 kvar=0.3496264446952789 Phases=2

New Load.load_p1rlv19845 conn=wye bus1=p1rlv19845.1.2 kV=0.2080002494301389 Vminpu=0.8 Vmaxpu=1.2 model=1 kW=1.9700200000000003 kvar=0.4000296226222012 Phases=2

New Load.load_p1rlv19849 conn=wye bus1=p1rlv19849.1.2 kV=0.2080002494301389 Vminpu=0.8 Vmaxpu=1.2 model=1 kW=1.0600100000000001 kvar=0.3499107480604964 Phases=2

New Load.load_p1rlv19851 conn=wye bus1=p1rlv19851.1.2 kV=0.2080002494301389 Vminpu=0.8 Vmaxpu=1.2 model=1 kW=1.17001 kvar=0.24001843710200912 Phases=2

New Load.load_p1rlv19854 conn=wye bus1=p1rlv19854.1.2 kV=0.2080002494301389 Vminpu=0.8 Vmaxpu=1.2 model=1 kW=1.52002 kvar=0.5001455939291516 Phases=2

New Load.load_p1rlv19861 conn=wye bus1=p1rlv19861.1.2 kV=0.2080002494301389 Vminpu=0.8 Vmaxpu=1.2 model=1 kW=2.24002 kvar=0.7402258301206796 Phases=2

New Load.load_p1rlv19870 conn=wye bus1=p1rlv19870.1.2 kV=0.2080002494301389 Vminpu=0.8 Vmaxpu=1.2 model=1 kW=3.27003 kvar=1.0701582201053481 Phases=2

New Load.load_p1rlv19879 conn=wye bus1=p1rlv19879.1.2 kV=0.2080002494301389 Vminpu=0.8 Vmaxpu=1.2 model=1 kW=2.30002 kvar=0.46944046466083733 Phases=2

New Load.load_p1rlv19892 conn=wye bus1=p1rlv19892.1.2 kV=0.2080002494301389 Vminpu=0.8 Vmaxpu=1.2 model=1 kW=4.05004 kvar=0.8202741461167985 Phases=2

New Load.load_p1rlv19894 conn=wye bus1=p1rlv19894.1.2 kV=0.2080002494301389 Vminpu=0.8 Vmaxpu=1.2 model=1 kW=1.15001 kvar=0.2298841243584978 Phases=2

New Load.load_p1rlv19910 conn=wye bus1=p1rlv19910.1.2 kV=0.2080002494301389 Vminpu=0.8 Vmaxpu=1.2 model=1 kW=3.44003 kvar=0.7003258045487328 Phases=2

New Load.load_p1rlv20123 conn=wye bus1=p1rlv20123.1.2.3 kV=0.48 Vminpu=0.8 Vmaxpu=1.2 model=1 kW=32.6503 kvar=6.629926187298432 Phases=3

New Load.load_p1rlv20124 conn=wye bus1=p1rlv20124.1.2.3 kV=0.48 Vminpu=0.8 Vmaxpu=1.2 model=1 kW=64.5206 kvar=13.101466619302341 Phases=3

New Load.load_p1rlv20125 conn=wye bus1=p1rlv20125.1.2.3 kV=0.48 Vminpu=0.8 Vmaxpu=1.2 model=1 kW=34.0703 kvar=6.918269485398717 Phases=3

New Load.load_p1rlv20126 conn=wye bus1=p1rlv20126.1.2 kV=0.2080002494301389 Vminpu=0.8 Vmaxpu=1.2 model=1 kW=14.6101 kvar=2.9667073377288657 Phases=2

New Load.load_p1rlv20127 conn=wye bus1=p1rlv20127.1.2.3 kV=0.48 Vminpu=0.8 Vmaxpu=1.2 model=1 kW=22.840199999999996 kvar=4.637900420612785 Phases=3

New Load.load_p1rlv20217 conn=wye bus1=p1rlv20217.1.2 kV=0.2080002494301389 Vminpu=0.8 Vmaxpu=1.2 model=1 kW=1.93002 kvar=0.6302481563055841 Phases=2

New Load.load_p1rlv20218 conn=wye bus1=p1rlv20218.1.2 kV=0.2080002494301389 Vminpu=0.8 Vmaxpu=1.2 model=1 kW=1.54002 kvar=0.5099953321978222 Phases=2

New Load.load_p1rlv20219 conn=wye bus1=p1rlv20219.1.2 kV=0.2080002494301389 Vminpu=0.8 Vmaxpu=1.2 model=1 kW=0.370004 kvar=0.12003154111794118 Phases=2

New Load.load_p1rlv20220 conn=wye bus1=p1rlv20220.1.2 kV=0.2080002494301389 Vminpu=0.8 Vmaxpu=1.2 model=1 kW=6.52007 kvar=2.1407288119594026 Phases=2

New Load.load_p1rlv20221 conn=wye bus1=p1rlv20221.1.2 kV=0.2080002494301389 Vminpu=0.8 Vmaxpu=1.2 model=1 kW=13.090100000000001 kvar=4.297860946497473 Phases=2

New Load.load_p1rlv20222 conn=wye bus1=p1rlv20222.1.2 kV=0.2080002494301389 Vminpu=0.8 Vmaxpu=1.2 model=1 kW=3.46003 kvar=1.1397106083816768 Phases=2

New Load.load_p1rlv20223 conn=wye bus1=p1rlv20223.1.2 kV=0.2080002494301389 Vminpu=0.8 Vmaxpu=1.2 model=1 kW=0.880009 kvar=0.2898690452890152 Phases=2

New Load.load_p1rlv20224 conn=wye bus1=p1rlv20224.1.2 kV=0.2080002494301389 Vminpu=0.8 Vmaxpu=1.2 model=1 kW=1.91002 kvar=0.6298242311465005 Phases=2

New Load.load_p1rlv20225 conn=wye bus1=p1rlv20225.1.2 kV=0.2080002494301389 Vminpu=0.8 Vmaxpu=1.2 model=1 kW=1.29001 kvar=0.4198715805341411 Phases=2

New Load.load_p1rlv20226 conn=wye bus1=p1rlv20226.1.2.3 kV=0.48 Vminpu=0.8 Vmaxpu=1.2 model=1 kW=27.4403 kvar=9.019190451339558 Phases=3

New Load.load_p1rlv20227 conn=wye bus1=p1rlv20227.1.2 kV=0.2080002494301389 Vminpu=0.8 Vmaxpu=1.2 model=1 kW=0.410004 kvar=0.1300470018858701 Phases=2

New Load.load_p1rlv20228 conn=wye bus1=p1rlv20228.1.2 kV=0.2080002494301389 Vminpu=0.8 Vmaxpu=1.2 model=1 kW=0.520005 kvar=0.16999297526842666 Phases=2

New Load.load_p1rlv20229 conn=wye bus1=p1rlv20229.1.2 kV=0.2080002494301389 Vminpu=0.8 Vmaxpu=1.2 model=1 kW=1.21001 kvar=0.3998538659049131 Phases=2

New Load.load_p1rlv20230 conn=wye bus1=p1rlv20230.1.2 kV=0.2080002494301389 Vminpu=0.8 Vmaxpu=1.2 model=1 kW=0.3000030000000001 kvar=0.0999833933383273 Phases=2

New Load.load_p1rlv20231 conn=wye bus1=p1rlv20231.1.2 kV=0.2080002494301389 Vminpu=0.8 Vmaxpu=1.2 model=1 kW=0.850009 kvar=0.279987247081644 Phases=2

New Load.load_p1rlv20232 conn=wye bus1=p1rlv20232.1.2 kV=0.2080002494301389 Vminpu=0.8 Vmaxpu=1.2 model=1 kW=0.640006 kvar=0.20990523349064538 Phases=2

New Load.load_p1rlv20233 conn=wye bus1=p1rlv20233.1.2 kV=0.2080002494301389 Vminpu=0.8 Vmaxpu=1.2 model=1 kW=1.43001 kvar=0.4700215572468261 Phases=2

New Load.load_p1rlv20234 conn=wye bus1=p1rlv20234.1.2 kV=0.2080002494301389 Vminpu=0.8 Vmaxpu=1.2 model=1 kW=1.24001 kvar=0.4102057081472393 Phases=2

New Load.load_p1rlv20235 conn=wye bus1=p1rlv20235.1.2 kV=0.2080002494301389 Vminpu=0.8 Vmaxpu=1.2 model=1 kW=1.80002 kvar=0.5897195236393014 Phases=2

New Load.load_p1rlv20236 conn=wye bus1=p1rlv20236.1.2 kV=0.2080002494301389 Vminpu=0.8 Vmaxpu=1.2 model=1 kW=0.860009 kvar=0.2799151464745127 Phases=2

New Load.load_p1rlv20237 conn=wye bus1=p1rlv20237.1.2 kV=0.2080002494301389 Vminpu=0.8 Vmaxpu=1.2 model=1 kW=1.81002 kvar=0.6000475980409095 Phases=2

New Load.load_p1rlv20238 conn=wye bus1=p1rlv20238.1.2 kV=0.2080002494301389 Vminpu=0.8 Vmaxpu=1.2 model=1 kW=5.66006 kvar=1.860371756358676 Phases=2

New Load.load_p1rlv20239 conn=wye bus1=p1rlv20239.1.2 kV=0.2080002494301389 Vminpu=0.8 Vmaxpu=1.2 model=1 kW=1.76002 kvar=0.5797387493645775 Phases=2

New Load.load_p1rlv20240 conn=wye bus1=p1rlv20240.1.2 kV=0.2080002494301389 Vminpu=0.8 Vmaxpu=1.2 model=1 kW=2.3500200000000007 kvar=0.7699095981949263 Phases=2

New Load.load_p1rlv20241 conn=wye bus1=p1rlv20241.1.2 kV=0.2080002494301389 Vminpu=0.8 Vmaxpu=1.2 model=1 kW=0.690007 kvar=0.22996183800561726 Phases=2

New Load.load_p1rlv20242 conn=wye bus1=p1rlv20242.1.2 kV=0.2080002494301389 Vminpu=0.8 Vmaxpu=1.2 model=1 kW=3.2600300000000004 kvar=1.0703627643341271 Phases=2

New Load.load_p1rlv20243 conn=wye bus1=p1rlv20243.1.2 kV=0.2080002494301389 Vminpu=0.8 Vmaxpu=1.2 model=1 kW=1.44001 kvar=0.47023535899192964 Phases=2

New Load.load_p1rlv20244 conn=wye bus1=p1rlv20244.1.2 kV=0.2080002494301389 Vminpu=0.8 Vmaxpu=1.2 model=1 kW=16.1802 kvar=5.318174558615041 Phases=2

New Load.load_p1rlv20245 conn=wye bus1=p1rlv20245.1.2 kV=0.2080002494301389 Vminpu=0.8 Vmaxpu=1.2 model=1 kW=0.650007 kvar=0.20993347072781318 Phases=2

New Load.load_p1rlv20246 conn=wye bus1=p1rlv20246.1.2 kV=0.2080002494301389 Vminpu=0.8 Vmaxpu=1.2 model=1 kW=1.56002 kvar=0.5099805603374024 Phases=2

New Load.load_p1rlv20247 conn=wye bus1=p1rlv20247.1.2 kV=0.2080002494301389 Vminpu=0.8 Vmaxpu=1.2 model=1 kW=8.94009 kvar=2.9384654818685028 Phases=2

New Load.load_p1rlv20248 conn=wye bus1=p1rlv20248.1.2 kV=0.2080002494301389 Vminpu=0.8 Vmaxpu=1.2 model=1 kW=12.0301 kvar=3.9498320847403194 Phases=2

New Load.load_p1rlv20249 conn=wye bus1=p1rlv20249.1.2 kV=0.2080002494301389 Vminpu=0.8 Vmaxpu=1.2 model=1 kW=1.22001 kvar=0.40013137987912967 Phases=2

New Load.load_p1rlv20250 conn=wye bus1=p1rlv20250.1.2 kV=0.2080002494301389 Vminpu=0.8 Vmaxpu=1.2 model=1 kW=3.40003 kvar=1.1199470119669346 Phases=2

New Load.load_p1rlv20251 conn=wye bus1=p1rlv20251.1.2 kV=0.2080002494301389 Vminpu=0.8 Vmaxpu=1.2 model=1 kW=3.6900400000000007 kvar=1.2102366349531428 Phases=2

New Load.load_p1rlv20252 conn=wye bus1=p1rlv20252.1.2 kV=0.2080002494301389 Vminpu=0.8 Vmaxpu=1.2 model=1 kW=0.380004 kvar=0.11997720470722155 Phases=2

New Load.load_p1rlv20253 conn=wye bus1=p1rlv20253.1.2.3 kV=0.48 Vminpu=0.8 Vmaxpu=1.2 model=1 kW=21.8002 kvar=7.157640369885198 Phases=3

New Load.load_p1rlv20254 conn=wye bus1=p1rlv20254.1.2 kV=0.2080002494301389 Vminpu=0.8 Vmaxpu=1.2 model=1 kW=1.96002 kvar=0.640044658253319 Phases=2

New Load.load_p1rlv20255 conn=wye bus1=p1rlv20255.1.2 kV=0.2080002494301389 Vminpu=0.8 Vmaxpu=1.2 model=1 kW=3.56004 kvar=1.17012856180096 Phases=2

New Load.load_p1rlv20256 conn=wye bus1=p1rlv20256.1.2 kV=0.2080002494301389 Vminpu=0.8 Vmaxpu=1.2 model=1 kW=2.02002 kvar=0.660357515604133 Phases=2

New Load.load_p1rlv20257 conn=wye bus1=p1rlv20257.1.2 kV=0.2080002494301389 Vminpu=0.8 Vmaxpu=1.2 model=1 kW=0.910009 kvar=0.30007315041800386 Phases=2

New Load.load_p1rlv20258 conn=wye bus1=p1rlv20258.1.2 kV=0.2080002494301389 Vminpu=0.8 Vmaxpu=1.2 model=1 kW=3.76004 kvar=1.2398636150826106 Phases=2

New Load.load_p1rlv20259 conn=wye bus1=p1rlv20259.1.2 kV=0.2080002494301389 Vminpu=0.8 Vmaxpu=1.2 model=1 kW=5.15005 kvar=1.6909113580117276 Phases=2

New Load.load_p1rlv20260 conn=wye bus1=p1rlv20260.1.2 kV=0.2080002494301389 Vminpu=0.8 Vmaxpu=1.2 model=1 kW=3.78004 kvar=1.2397542816848268 Phases=2

New Load.load_p1rlv20261 conn=wye bus1=p1rlv20261.1.2 kV=0.2080002494301389 Vminpu=0.8 Vmaxpu=1.2 model=1 kW=8.20008 kvar=2.7010511948099927 Phases=2

New Load.load_p1rlv20640 conn=wye bus1=p1rlv20640.1.2 kV=0.2080002494301389 Vminpu=0.8 Vmaxpu=1.2 model=1 kW=1.69002 kvar=0.5500665642392765 Phases=2

New Load.load_p1rlv20641 conn=wye bus1=p1rlv20641.1.2.3 kV=0.48 Vminpu=0.8 Vmaxpu=1.2 model=1 kW=24.940199999999997 kvar=8.197447319981883 Phases=3

New Load.load_p1rlv20642 conn=wye bus1=p1rlv20642.1.2.3 kV=0.48 Vminpu=0.8 Vmaxpu=1.2 model=1 kW=24.8002 kvar=8.151431545256841 Phases=3

New Load.load_p1rlv20643 conn=wye bus1=p1rlv20643.1.2 kV=0.2080002494301389 Vminpu=0.8 Vmaxpu=1.2 model=1 kW=1.3100100000000001 kvar=0.43011442376461256 Phases=2

New Load.load_p1rlv20645 conn=wye bus1=p1rlv20645.1.2 kV=0.2080002494301389 Vminpu=0.8 Vmaxpu=1.2 model=1 kW=7.54008 kvar=1.531078545873243 Phases=2

New Load.load_p1rlv20647 conn=wye bus1=p1rlv20647.1.2 kV=0.2080002494301389 Vminpu=0.8 Vmaxpu=1.2 model=1 kW=8.68009 kvar=2.849926266650618 Phases=2

New Load.load_p1rlv20648 conn=wye bus1=p1rlv20648.1.2 kV=0.2080002494301389 Vminpu=0.8 Vmaxpu=1.2 model=1 kW=7.41007 kvar=1.5007972370435119 Phases=2

New Load.load_p1rlv20649 conn=wye bus1=p1rlv20649.1.2 kV=0.2080002494301389 Vminpu=0.8 Vmaxpu=1.2 model=1 kW=0.820008 kvar=0.27010511948099925 Phases=2

New Load.load_p1rlv20650 conn=wye bus1=p1rlv20650.1.2 kV=0.2080002494301389 Vminpu=0.8 Vmaxpu=1.2 model=1 kW=2.87003 kvar=0.5797741681037358 Phases=2

New Load.load_p1rlv20652 conn=wye bus1=p1rlv20652.1.2.3 kV=0.48 Vminpu=0.8 Vmaxpu=1.2 model=1 kW=20.630200000000002 kvar=4.189140780611635 Phases=3

New Load.load_p1rlv20653 conn=wye bus1=p1rlv20653.1.2 kV=0.2080002494301389 Vminpu=0.8 Vmaxpu=1.2 model=1 kW=6.68007 kvar=2.1908882933657736 Phases=2

New Load.load_p1rlv20654 conn=wye bus1=p1rlv20654.1.2 kV=0.2080002494301389 Vminpu=0.8 Vmaxpu=1.2 model=1 kW=6.34006 kvar=2.079373903751998 Phases=2

New Load.load_p1rlv20656 conn=wye bus1=p1rlv20656.1.2.3 kV=0.48 Vminpu=0.8 Vmaxpu=1.2 model=1 kW=33.1503 kvar=10.895976691910867 Phases=3

New Load.load_p1rlv20657 conn=wye bus1=p1rlv20657.1.2 kV=0.2080002494301389 Vminpu=0.8 Vmaxpu=1.2 model=1 kW=3.76004 kvar=1.2398636150826106 Phases=2

New Load.load_p1rlv20659 conn=wye bus1=p1rlv20659.1.2 kV=0.2080002494301389 Vminpu=0.8 Vmaxpu=1.2 model=1 kW=4.43004 kvar=1.449786002390038 Phases=2

New Load.load_p1rlv20660 conn=wye bus1=p1rlv20660.1.2 kV=0.2080002494301389 Vminpu=0.8 Vmaxpu=1.2 model=1 kW=14.8301 kvar=4.879678670365331 Phases=2

New Load.load_p1rlv20661 conn=wye bus1=p1rlv20661.1.2 kV=0.2080002494301389 Vminpu=0.8 Vmaxpu=1.2 model=1 kW=18.9002 kvar=3.837849297714808 Phases=2

New Load.load_p1rlv20663 conn=wye bus1=p1rlv20663.1.2 kV=0.2080002494301389 Vminpu=0.8 Vmaxpu=1.2 model=1 kW=10.6301 kvar=3.5014834374725257 Phases=2

New Load.load_p1rlv20664 conn=wye bus1=p1rlv20664.1.2 kV=0.2080002494301389 Vminpu=0.8 Vmaxpu=1.2 model=1 kW=2.60003 kvar=0.8601117308360952 Phases=2

New Load.load_p1rlv20665 conn=wye bus1=p1rlv20665.1.2.3 kV=0.48 Vminpu=0.8 Vmaxpu=1.2 model=1 kW=22.7102 kvar=4.611502794730364 Phases=3

New Load.load_p1rlv20669 conn=wye bus1=p1rlv20669.1.2 kV=0.2080002494301389 Vminpu=0.8 Vmaxpu=1.2 model=1 kW=0.770008 kvar=0.25007095327480516 Phases=2

New Load.load_p1rlv20671 conn=wye bus1=p1rlv20671.1.2 kV=0.2080002494301389 Vminpu=0.8 Vmaxpu=1.2 model=1 kW=1.47001 kvar=0.4800318609396647 Phases=2

New Load.load_p1rlv20678 conn=wye bus1=p1rlv20678.1.2 kV=0.2080002494301389 Vminpu=0.8 Vmaxpu=1.2 model=1 kW=2.13002 kvar=0.700103717713082 Phases=2

New Load.load_p1rlv20684 conn=wye bus1=p1rlv20684.1.2 kV=0.2080002494301389 Vminpu=0.8 Vmaxpu=1.2 model=1 kW=10.8301 kvar=3.559681727497606 Phases=2

New Load.load_p1rlv20690 conn=wye bus1=p1rlv20690.1.2 kV=0.2080002494301389 Vminpu=0.8 Vmaxpu=1.2 model=1 kW=10.180100000000001 kvar=3.3388066165912806 Phases=2

New Load.load_p1rlv20691 conn=wye bus1=p1rlv20691.1.2 kV=0.2080002494301389 Vminpu=0.8 Vmaxpu=1.2 model=1 kW=0.320003 kvar=0.10998628040655055 Phases=2

New Load.load_p1rlv20833 conn=wye bus1=p1rlv20833.1.2 kV=0.2080002494301389 Vminpu=0.8 Vmaxpu=1.2 model=1 kW=1.25001 kvar=0.40997059545635767 Phases=2

New Load.load_p1rlv20845 conn=wye bus1=p1rlv20845.1.2 kV=0.2080002494301389 Vminpu=0.8 Vmaxpu=1.2 model=1 kW=1.64002 kvar=0.5402115565350929 Phases=2

New Load.load_p1rlv20846 conn=wye bus1=p1rlv20846.1.2 kV=0.2080002494301389 Vminpu=0.8 Vmaxpu=1.2 model=1 kW=1.77002 kvar=0.5798909741180854 Phases=2

New Load.load_p1rlv20857 conn=wye bus1=p1rlv20857.1.2 kV=0.2080002494301389 Vminpu=0.8 Vmaxpu=1.2 model=1 kW=1.47001 kvar=0.4800318609396647 Phases=2

New Load.load_p1rlv20859 conn=wye bus1=p1rlv20859.1.2 kV=0.2080002494301389 Vminpu=0.8 Vmaxpu=1.2 model=1 kW=5.090050000000001 kvar=1.0309123903570856 Phases=2

New Load.load_p1rlv20870 conn=wye bus1=p1rlv20870.1.2 kV=0.2080002494301389 Vminpu=0.8 Vmaxpu=1.2 model=1 kW=14.3101 kvar=2.9132688655833876 Phases=2

New Load.load_p1rlv20871 conn=wye bus1=p1rlv20871.1.2 kV=0.2080002494301389 Vminpu=0.8 Vmaxpu=1.2 model=1 kW=13.590100000000001 kvar=2.7595875038821815 Phases=2

New Load.load_p1rlv20883 conn=wye bus1=p1rlv20883.1.2 kV=0.2080002494301389 Vminpu=0.8 Vmaxpu=1.2 model=1 kW=5.770060000000001 kvar=1.1686380972885935 Phases=2

New Load.load_p1rlv20884 conn=wye bus1=p1rlv20884.1.2 kV=0.2080002494301389 Vminpu=0.8 Vmaxpu=1.2 model=1 kW=2.5500300000000005 kvar=0.5204681994500374 Phases=2

New Load.load_p1rlv20886 conn=wye bus1=p1rlv20886.1.2 kV=0.2080002494301389 Vminpu=0.8 Vmaxpu=1.2 model=1 kW=3.65004 kvar=0.7392602157737106 Phases=2

New Load.load_p1rlv20888 conn=wye bus1=p1rlv20888.1.2 kV=0.2080002494301389 Vminpu=0.8 Vmaxpu=1.2 model=1 kW=7.57008 kvar=1.5411267827601127 Phases=2

New Load.load_p1rlv20889 conn=wye bus1=p1rlv20889.1.2 kV=0.2080002494301389 Vminpu=0.8 Vmaxpu=1.2 model=1 kW=14.8101 kvar=3.0073190698556673 Phases=2

New Load.load_p1rlv20891 conn=wye bus1=p1rlv20891.1.2 kV=0.2080002494301389 Vminpu=0.8 Vmaxpu=1.2 model=1 kW=1.42001 kvar=0.2898279815927842 Phases=2

New Load.load_p1rlv20892 conn=wye bus1=p1rlv20892.1.2 kV=0.2080002494301389 Vminpu=0.8 Vmaxpu=1.2 model=1 kW=2.33002 kvar=0.469460711936096 Phases=2

New Load.load_p1rlv20893 conn=wye bus1=p1rlv20893.1.2.3 kV=0.48 Vminpu=0.8 Vmaxpu=1.2 model=1 kW=22.8202 kvar=4.633839247400105 Phases=3

New Load.load_p1rlv20894 conn=wye bus1=p1rlv20894.1.2 kV=0.2080002494301389 Vminpu=0.8 Vmaxpu=1.2 model=1 kW=2.54003 kvar=0.5197487439894416 Phases=2

New Load.load_p1rlv20895 conn=wye bus1=p1rlv20895.1.2.3 kV=0.48 Vminpu=0.8 Vmaxpu=1.2 model=1 kW=64.2006 kvar=13.036487847899455 Phases=3

New Load.load_p1rlv20897 conn=wye bus1=p1rlv20897.1.2 kV=0.2080002494301389 Vminpu=0.8 Vmaxpu=1.2 model=1 kW=4.41004 kvar=0.890871270441145 Phases=2

New Load.load_p1rlv20899 conn=wye bus1=p1rlv20899.1.2 kV=0.2080002494301389 Vminpu=0.8 Vmaxpu=1.2 model=1 kW=1.65002 kvar=0.32983487350023794 Phases=2

New Load.load_p1rlv20900 conn=wye bus1=p1rlv20900.1.2 kV=0.2080002494301389 Vminpu=0.8 Vmaxpu=1.2 model=1 kW=2.07002 kvar=0.4203354886856016 Phases=2

New Load.load_p1rlv20903 conn=wye bus1=p1rlv20903.1.2 kV=0.2080002494301389 Vminpu=0.8 Vmaxpu=1.2 model=1 kW=8.53009 kvar=1.7321086504875136 Phases=2

New Load.load_p1rlv20904 conn=wye bus1=p1rlv20904.1.2 kV=0.2080002494301389 Vminpu=0.8 Vmaxpu=1.2 model=1 kW=1.03001 kvar=0.21022789932492286 Phases=2
