clock {
	timezone PST8;
	starttime '2013-08-01 0:00:00';
	stoptime '2013-08-01 0:00:00';
}
module powerflow {
	solver_method NR;
	line_limits FALSE;
	NR_iteration_limit 100;
	line_capacitance true;
	maximum_voltage_error 1e-8;
}
object load {
	name bus3;
	phases ABC;
	nominal_voltage 127.017 kV;
	bustype PQ;
	voltage_A 129.1349-21.7616d kV;
	voltage_B 129.1349-141.7616d kV;
	voltage_C 129.1349+98.2384d kV;
	constant_power_A 50.3333+16.2667j MVA;
	constant_power_B 50.3333+16.2667j MVA;
	constant_power_C 50.3333+16.2667j MVA;
	constant_impedance_A 0.0000-10319.8294j Ohm;
	constant_impedance_B 0.0000-10319.8294j Ohm;
	constant_impedance_C 0.0000-10319.8294j Ohm;
}
object load {
	name bus4;
	phases ABC;
	nominal_voltage 127.017 kV;
	bustype PQ;
	voltage_A 130.3795-7.0074d kV;
	voltage_B 130.3795-127.0074d kV;
	voltage_C 130.3795+112.9926d kV;
	constant_power_A 57.1367+7.8000j MVA;
	constant_power_B 57.1367+7.8000j MVA;
	constant_power_C 57.1367+7.8000j MVA;
	constant_impedance_A 0.0000-23047.6190j Ohm;
	constant_impedance_B 0.0000-23047.6190j Ohm;
	constant_impedance_C 0.0000-23047.6190j Ohm;
}
object load {
	name bus10;
	phases ABC;
	nominal_voltage 127.017 kV;
	bustype PQ;
	voltage_A 131.9115-24.2816d kV;
	voltage_B 131.9115-144.2816d kV;
	voltage_C 131.9115+95.7184d kV;
	constant_power_A 44.6667+8.2333j MVA;
	constant_power_B 44.6667+8.2333j MVA;
	constant_power_C 44.6667+8.2333j MVA;
	constant_impedance_A 0.0000-3890.6752j Ohm;
	constant_impedance_B 0.0000-3890.6752j Ohm;
	constant_impedance_C 0.0000-3890.6752j Ohm;
}
object load {
	name bus21;
	phases ABC;
	nominal_voltage 127.017 kV;
	bustype PQ;
	voltage_A 131.6144-21.9588d kV;
	voltage_B 131.6144-141.9588d kV;
	voltage_C 131.6144+98.0412d kV;
	constant_power_A 53.7333+13.1000j MVA;
	constant_power_B 53.7333+13.1000j MVA;
	constant_power_C 53.7333+13.1000j MVA;
	constant_impedance_A 0.0000-1576.0339j Ohm;
	constant_impedance_B 0.0000-1576.0339j Ohm;
	constant_impedance_C 0.0000-1576.0339j Ohm;
}
object load {
	name bus22;
	phases ABC;
	nominal_voltage 127.017 kV;
	bustype PQ;
	voltage_A 131.4700-18.4833d kV;
	voltage_B 131.4700-138.4833d kV;
	voltage_C 131.4700+101.5167d kV;
	constant_impedance_A 0.0000-56941.1765j Ohm;
	constant_impedance_B 0.0000-56941.1765j Ohm;
	constant_impedance_C 0.0000-56941.1765j Ohm;
}
object load {
	name bus26;
	phases ABC;
	nominal_voltage 219.393 kV;
	bustype PQ;
	voltage_A 226.4723-3.3184d kV;
	voltage_B 226.4723-123.3184d kV;
	voltage_C 226.4723+116.6816d kV;
	constant_power_A 55.7667+18.2667j MVA;
	constant_power_B 55.7667+18.2667j MVA;
	constant_power_C 55.7667+18.2667j MVA;
	constant_impedance_A 0.0000-1306.3145j Ohm;
	constant_impedance_B 0.0000-1306.3145j Ohm;
	constant_impedance_C 0.0000-1306.3145j Ohm;
}
object load {
	name bus29;
	phases ABC;
	nominal_voltage 219.393 kV;
	bustype PQ;
	voltage_A 218.1665-13.8164d kV;
	voltage_B 218.1665-133.8164d kV;
	voltage_C 218.1665+106.1836d kV;
	constant_power_A 50.9667+16.4667j MVA;
	constant_power_B 50.9667+16.4667j MVA;
	constant_power_C 50.9667+16.4667j MVA;
	constant_impedance_A 0.0000-5222.4231j Ohm;
	constant_impedance_B 0.0000-5222.4231j Ohm;
	constant_impedance_C 0.0000-5222.4231j Ohm;
}
object load {
	name bus44;
	phases ABC;
	nominal_voltage 127.017 kV;
	bustype PQ;
	voltage_A 132.8381-22.1811d kV;
	voltage_B 132.8381-142.1811d kV;
	voltage_C 132.8381+97.8189d kV;
	constant_impedance_A 0.0000-6657.4966j Ohm;
	constant_impedance_B 0.0000-6657.4966j Ohm;
	constant_impedance_C 0.0000-6657.4966j Ohm;
}
object load {
	name bus53;
	phases ABC;
	nominal_voltage 127.017 kV;
	bustype PQ;
	voltage_A 135.0727-9.0700d kV;
	voltage_B 135.0727-129.0700d kV;
	voltage_C 135.0727+110.9300d kV;
	constant_power_A 16.2167+5.3667j MVA;
	constant_power_B 16.2167+5.3667j MVA;
	constant_power_C 16.2167+5.3667j MVA;
	constant_impedance_A 0.0000-6778.7115j Ohm;
	constant_impedance_B 0.0000-6778.7115j Ohm;
	constant_impedance_C 0.0000-6778.7115j Ohm;
}
object load {
	name bus58;
	phases ABC;
	nominal_voltage 219.393 kV;
	bustype PQ;
	voltage_A 215.8174-21.1594d kV;
	voltage_B 215.8174-141.1594d kV;
	voltage_C 215.8174+98.8406d kV;
	constant_impedance_A 0.0000-62510.8225j Ohm;
	constant_impedance_B 0.0000-62510.8225j Ohm;
	constant_impedance_C 0.0000-62510.8225j Ohm;
}
object load {
	name bus59;
	phases ABC;
	nominal_voltage 127.017 kV;
	bustype PQ;
	voltage_A 131.6923-23.6320d kV;
	voltage_B 131.6923-143.6320d kV;
	voltage_C 131.6923+96.3680d kV;
	constant_power_A 39.7333+6.9000j MVA;
	constant_power_B 39.7333+6.9000j MVA;
	constant_power_C 39.7333+6.9000j MVA;
	constant_impedance_A 0.0000-14622.3565j Ohm;
	constant_impedance_B 0.0000-14622.3565j Ohm;
	constant_impedance_C 0.0000-14622.3565j Ohm;
}
object load {
	name bus90;
	phases ABC;
	nominal_voltage 127.017 kV;
	bustype PQ;
	voltage_A 132.3755-27.5463d kV;
	voltage_B 132.3755-147.5463d kV;
	voltage_C 132.3755+92.4537d kV;
	constant_power_A 121.0833+38.4633j MVA;
	constant_power_B 121.0833+38.4633j MVA;
	constant_power_C 121.0833+38.4633j MVA;
	constant_impedance_A 0.0000-12253.1646j Ohm;
	constant_impedance_B 0.0000-12253.1646j Ohm;
	constant_impedance_C 0.0000-12253.1646j Ohm;
}
object load {
	name bus96;
	phases ABC;
	nominal_voltage 127.017 kV;
	bustype PQ;
	voltage_A 130.8836-15.6895d kV;
	voltage_B 130.8836-135.6895d kV;
	voltage_C 130.8836+104.3105d kV;
	constant_power_A -2.8000+9.5533j MVA;
	constant_power_B -2.8000+9.5533j MVA;
	constant_power_C -2.8000+9.5533j MVA;
	constant_impedance_A 0.0000-13868.1948j Ohm;
	constant_impedance_B 0.0000-13868.1948j Ohm;
	constant_impedance_C 0.0000-13868.1948j Ohm;
}
object load {
	name bus113;
	phases ABC;
	nominal_voltage 219.393 kV;
	bustype PQ;
	voltage_A 226.1324-14.2429d kV;
	voltage_B 226.1324-134.2429d kV;
	voltage_C 226.1324+105.7571d kV;
	constant_impedance_A 0.0000-22104.1463j Ohm;
	constant_impedance_B 0.0000-22104.1463j Ohm;
	constant_impedance_C 0.0000-22104.1463j Ohm;
}
object load {
	name bus115;
	phases ABC;
	nominal_voltage 127.017 kV;
	bustype PQ;
	voltage_A 135.5014-19.7837d kV;
	voltage_B 135.5014-139.7837d kV;
	voltage_C 135.5014+100.2163d kV;
	constant_impedance_A 0.0000-11496.4371j Ohm;
	constant_impedance_B 0.0000-11496.4371j Ohm;
	constant_impedance_C 0.0000-11496.4371j Ohm;
}
object load {
	name bus118;
	phases ABC;
	nominal_voltage 219.393 kV;
	bustype PQ;
	voltage_A 223.8371-11.4300d kV;
	voltage_B 223.8371-131.4300d kV;
	voltage_C 223.8371+108.5700d kV;
	constant_power_A 234.8433-11.7767j MVA;
	constant_power_B 234.8433-11.7767j MVA;
	constant_power_C 234.8433-11.7767j MVA;
	constant_impedance_A 0.0000-11020.5166j Ohm;
	constant_impedance_B 0.0000-11020.5166j Ohm;
	constant_impedance_C 0.0000-11020.5166j Ohm;
}
object node {
	name bus124;
	phases ABC;
	nominal_voltage 127.017 kV;
	bustype PQ;
	voltage_A 137.3736+8.3307d kV;
	voltage_B 137.3736-111.6693d kV;
	voltage_C 137.3736+128.3307d kV;
}
object load {
	name bus128;
	phases ABC;
	nominal_voltage 127.017 kV;
	bustype PQ;
	voltage_A 129.6186-16.0634d kV;
	voltage_B 129.6186-136.0634d kV;
	voltage_C 129.6186+103.9366d kV;
	constant_power_A 7.9100+4.2333j MVA;
	constant_power_B 7.9100+4.2333j MVA;
	constant_power_C 7.9100+4.2333j MVA;
	constant_impedance_A 0.0000-93076.9231j Ohm;
	constant_impedance_B 0.0000-93076.9231j Ohm;
	constant_impedance_C 0.0000-93076.9231j Ohm;
}
object load {
	name bus145;
	phases ABC;
	nominal_voltage 127.017 kV;
	bustype PQ;
	voltage_A 131.9829-8.9036d kV;
	voltage_B 131.9829-128.9036d kV;
	voltage_C 131.9829+111.0964d kV;
	constant_power_A 12.7800+1.8667j MVA;
	constant_power_B 12.7800+1.8667j MVA;
	constant_power_C 12.7800+1.8667j MVA;
	constant_impedance_A 0.0000-6335.0785j Ohm;
	constant_impedance_B 0.0000-6335.0785j Ohm;
	constant_impedance_C 0.0000-6335.0785j Ohm;
}
object load {
	name bus148;
	phases ABC;
	nominal_voltage 127.017 kV;
	bustype PQ;
	voltage_A 132.2969-7.9913d kV;
	voltage_B 132.2969-127.9913d kV;
	voltage_C 132.2969+112.0087d kV;
	constant_power_A 10.7800+4.0000j MVA;
	constant_power_B 10.7800+4.0000j MVA;
	constant_power_C 10.7800+4.0000j MVA;
	constant_impedance_A 0.0000-7934.4262j Ohm;
	constant_impedance_B 0.0000-7934.4262j Ohm;
	constant_impedance_C 0.0000-7934.4262j Ohm;
}
object node {
	name bus150;
	phases ABC;
	nominal_voltage 127.017 kV;
	bustype PQ;
	voltage_A 134.9944+2.5318d kV;
	voltage_B 134.9944-117.4682d kV;
	voltage_C 134.9944+122.5318d kV;
}
object load {
	name bus163;
	phases ABC;
	nominal_voltage 127.017 kV;
	bustype PQ;
	voltage_A 132.9928-10.6724d kV;
	voltage_B 132.9928-130.6724d kV;
	voltage_C 132.9928+109.3276d kV;
	constant_power_A 49.2533+10.9100j MVA;
	constant_power_B 49.2533+10.9100j MVA;
	constant_power_C 49.2533+10.9100j MVA;
	constant_impedance_A 0.0000-5803.3573j Ohm;
	constant_impedance_B 0.0000-5803.3573j Ohm;
	constant_impedance_C 0.0000-5803.3573j Ohm;
}
object load {
	name bus171;
	phases ABC;
	nominal_voltage 127.017 kV;
	bustype PQ;
	voltage_A 135.8637-25.1533d kV;
	voltage_B 135.8637-145.1533d kV;
	voltage_C 135.8637+94.8467d kV;
	constant_power_A 33.6000+4.4000j MVA;
	constant_power_B 33.6000+4.4000j MVA;
	constant_power_C 33.6000+4.4000j MVA;
	constant_impedance_A 0.0000-9236.6412j Ohm;
	constant_impedance_B 0.0000-9236.6412j Ohm;
	constant_impedance_C 0.0000-9236.6412j Ohm;
}
object load {
	name bus174;
	phases ABC;
	nominal_voltage 127.017 kV;
	bustype PQ;
	voltage_A 136.5238-27.9428d kV;
	voltage_B 136.5238-147.9428d kV;
	voltage_C 136.5238+92.0572d kV;
	constant_power_A 123.5000-5.6667j MVA;
	constant_power_B 123.5000-5.6667j MVA;
	constant_power_C 123.5000-5.6667j MVA;
	constant_impedance_A 0.0000-4883.9556j Ohm;
	constant_impedance_B 0.0000-4883.9556j Ohm;
	constant_impedance_C 0.0000-4883.9556j Ohm;
}
object load {
	name bus184;
	phases ABC;
	nominal_voltage 127.017 kV;
	bustype PQ;
	voltage_A 132.4497-11.9485d kV;
	voltage_B 132.4497-131.9485d kV;
	voltage_C 132.4497+108.0515d kV;
	constant_impedance_A 0.0000-20000.0000j Ohm;
	constant_impedance_B 0.0000-20000.0000j Ohm;
	constant_impedance_C 0.0000-20000.0000j Ohm;
}
object load {
	name bus188;
	phases ABC;
	nominal_voltage 127.017 kV;
	bustype PQ;
	voltage_A 129.3989-19.5504d kV;
	voltage_B 129.3989-139.5504d kV;
	voltage_C 129.3989+100.4496d kV;
	constant_power_A 12.2800+4.6333j MVA;
	constant_power_B 12.2800+4.6333j MVA;
	constant_power_C 12.2800+4.6333j MVA;
	constant_impedance_A 0.0000-14666.6667j Ohm;
	constant_impedance_B 0.0000-14666.6667j Ohm;
	constant_impedance_C 0.0000-14666.6667j Ohm;
}
object load {
	name bus195;
	phases ABC;
	nominal_voltage 127.017 kV;
	bustype PQ;
	voltage_A 134.1728-8.7911d kV;
	voltage_B 134.1728-128.7911d kV;
	voltage_C 134.1728+111.2089d kV;
	constant_power_A 24.3800+7.1833j MVA;
	constant_power_B 24.3800+7.1833j MVA;
	constant_power_C 24.3800+7.1833j MVA;
	constant_impedance_A 0.0000-5680.7512j Ohm;
	constant_impedance_B 0.0000-5680.7512j Ohm;
	constant_impedance_C 0.0000-5680.7512j Ohm;
}
object load {
	name bus196;
	phases ABC;
	nominal_voltage 127.017 kV;
	bustype PQ;
	voltage_A 136.5211-26.3199d kV;
	voltage_B 136.5211-146.3199d kV;
	voltage_C 136.5211+93.6801d kV;
	constant_impedance_A 0.0000-3878.2051j Ohm;
	constant_impedance_B 0.0000-3878.2051j Ohm;
	constant_impedance_C 0.0000-3878.2051j Ohm;
}
object load {
	name bus198;
	phases ABC;
	nominal_voltage 127.017 kV;
	bustype PQ;
	voltage_A 129.1421-16.3067d kV;
	voltage_B 129.1421-136.3067d kV;
	voltage_C 129.1421+103.6933d kV;
	constant_power_A 13.2467+3.9333j MVA;
	constant_power_B 13.2467+3.9333j MVA;
	constant_power_C 13.2467+3.9333j MVA;
	constant_impedance_A 0.0000-33611.1111j Ohm;
	constant_impedance_B 0.0000-33611.1111j Ohm;
	constant_impedance_C 0.0000-33611.1111j Ohm;
}
object load {
	name bus207;
	phases ABC;
	nominal_voltage 127.017 kV;
	bustype PQ;
	voltage_A 130.3962-13.4576d kV;
	voltage_B 130.3962-133.4576d kV;
	voltage_C 130.3962+106.5424d kV;
	constant_power_A 107.3267+28.1333j MVA;
	constant_power_B 107.3267+28.1333j MVA;
	constant_power_C 107.3267+28.1333j MVA;
	constant_impedance_A 0.0000-36119.4030j Ohm;
	constant_impedance_B 0.0000-36119.4030j Ohm;
	constant_impedance_C 0.0000-36119.4030j Ohm;
}
object load {
	name bus216;
	phases ABC;
	nominal_voltage 127.017 kV;
	bustype PQ;
	voltage_A 132.0167-24.5905d kV;
	voltage_B 132.0167-144.5905d kV;
	voltage_C 132.0167+95.4095d kV;
	constant_power_A 51.8667+18.2333j MVA;
	constant_power_B 51.8667+18.2333j MVA;
	constant_power_C 51.8667+18.2333j MVA;
	constant_impedance_A 0.0000-21900.4525j Ohm;
	constant_impedance_B 0.0000-21900.4525j Ohm;
	constant_impedance_C 0.0000-21900.4525j Ohm;
}
object load {
	name bus217;
	phases ABC;
	nominal_voltage 127.017 kV;
	bustype PQ;
	voltage_A 132.4486-2.6036d kV;
	voltage_B 132.4486-122.6036d kV;
	voltage_C 132.4486+117.3964d kV;
	constant_power_A 35.0667+0.0333j MVA;
	constant_power_B 35.0667+0.0333j MVA;
	constant_power_C 35.0667+0.0333j MVA;
	constant_impedance_A 0.0000-6576.0870j Ohm;
	constant_impedance_B 0.0000-6576.0870j Ohm;
	constant_impedance_C 0.0000-6576.0870j Ohm;
}
object load {
	name bus218;
	phases ABC;
	nominal_voltage 127.017 kV;
	bustype PQ;
	voltage_A 132.8501-13.1149d kV;
	voltage_B 132.8501-133.1149d kV;
	voltage_C 132.8501+106.8851d kV;
	constant_power_A 23.2767+5.0400j MVA;
	constant_power_B 23.2767+5.0400j MVA;
	constant_power_C 23.2767+5.0400j MVA;
	constant_impedance_A 0.0000-21704.0359j Ohm;
	constant_impedance_B 0.0000-21704.0359j Ohm;
	constant_impedance_C 0.0000-21704.0359j Ohm;
}
object node {
	name bus221;
	phases ABC;
	nominal_voltage 219.393 kV;
	bustype PQ;
	voltage_A 216.0324-21.8076d kV;
	voltage_B 216.0324-141.8076d kV;
	voltage_C 216.0324+98.1924d kV;
}
object load {
	name bus225;
	phases ABC;
	nominal_voltage 127.017 kV;
	bustype PQ;
	voltage_A 135.1158-20.1740d kV;
	voltage_B 135.1158-140.1740d kV;
	voltage_C 135.1158+99.8260d kV;
	constant_impedance_A 0.0000-42086.9565j Ohm;
	constant_impedance_B 0.0000-42086.9565j Ohm;
	constant_impedance_C 0.0000-42086.9565j Ohm;
}
object load {
	name bus280;
	phases ABC;
	nominal_voltage 127.017 kV;
	bustype PQ;
	voltage_A 131.5547-11.1937d kV;
	voltage_B 131.5547-131.1937d kV;
	voltage_C 131.5547+108.8063d kV;
	constant_power_A 39.8667+9.8667j MVA;
	constant_power_B 39.8667+9.8667j MVA;
	constant_power_C 39.8667+9.8667j MVA;
	constant_impedance_A 0.0000-9063.6704j Ohm;
	constant_impedance_B 0.0000-9063.6704j Ohm;
	constant_impedance_C 0.0000-9063.6704j Ohm;
}
object load {
	name bus283;
	phases ABC;
	nominal_voltage 127.017 kV;
	bustype PQ;
	voltage_A 131.4886-12.0946d kV;
	voltage_B 131.4886-132.0946d kV;
	voltage_C 131.4886+107.9054d kV;
	constant_power_A 9.1100+3.9667j MVA;
	constant_power_B 9.1100+3.9667j MVA;
	constant_power_C 9.1100+3.9667j MVA;
	constant_impedance_A 0.0000-41367.5214j Ohm;
	constant_impedance_B 0.0000-41367.5214j Ohm;
	constant_impedance_C 0.0000-41367.5214j Ohm;
}
object load {
	name bus292;
	phases ABC;
	nominal_voltage 127.017 kV;
	bustype PQ;
	voltage_A 133.0560-14.7651d kV;
	voltage_B 133.0560-134.7651d kV;
	voltage_C 133.0560+105.2349d kV;
	constant_power_A 4.6067+0.4667j MVA;
	constant_power_B 4.6067+0.4667j MVA;
	constant_power_C 4.6067+0.4667j MVA;
	constant_impedance_A 0.0000-69142.8571j Ohm;
	constant_impedance_B 0.0000-69142.8571j Ohm;
	constant_impedance_C 0.0000-69142.8571j Ohm;
}
object load {
	name bus305;
	phases ABC;
	nominal_voltage 127.017 kV;
	bustype PQ;
	voltage_A 135.5511-32.4347d kV;
	voltage_B 135.5511-152.4347d kV;
	voltage_C 135.5511+87.5653d kV;
	constant_power_A 34.3333+4.0000j MVA;
	constant_power_B 34.3333+4.0000j MVA;
	constant_power_C 34.3333+4.0000j MVA;
	constant_impedance_A 0.0000-76825.3968j Ohm;
	constant_impedance_B 0.0000-76825.3968j Ohm;
	constant_impedance_C 0.0000-76825.3968j Ohm;
}
object load {
	name bus306;
	phases ABC;
	nominal_voltage 127.017 kV;
	bustype PQ;
	voltage_A 130.8316-18.8236d kV;
	voltage_B 130.8316-138.8236d kV;
	voltage_C 130.8316+101.1764d kV;
	constant_impedance_A 0.0000-10168.0672j Ohm;
	constant_impedance_B 0.0000-10168.0672j Ohm;
	constant_impedance_C 0.0000-10168.0672j Ohm;
}
object load {
	name bus314;
	phases ABC;
	nominal_voltage 127.017 kV;
	bustype PQ;
	voltage_A 127.7217-16.0209d kV;
	voltage_B 127.7217-136.0209d kV;
	voltage_C 127.7217+103.9791d kV;
	constant_power_A 54.3667+15.4333j MVA;
	constant_power_B 54.3667+15.4333j MVA;
	constant_power_C 54.3667+15.4333j MVA;
	constant_impedance_A 0.0000-4566.0377j Ohm;
	constant_impedance_B 0.0000-4566.0377j Ohm;
	constant_impedance_C 0.0000-4566.0377j Ohm;
}
object load {
	name bus333;
	phases ABC;
	nominal_voltage 127.017 kV;
	bustype PQ;
	voltage_A 128.8688-42.1377d kV;
	voltage_B 128.8688-162.1377d kV;
	voltage_C 128.8688+77.8623d kV;
	constant_power_A 174.8333+14.3333j MVA;
	constant_power_B 174.8333+14.3333j MVA;
	constant_power_C 174.8333+14.3333j MVA;
	constant_impedance_A 0.0000-7065.6934j Ohm;
	constant_impedance_B 0.0000-7065.6934j Ohm;
	constant_impedance_C 0.0000-7065.6934j Ohm;
}
object node {
	name bus338;
	phases ABC;
	nominal_voltage 127.017 kV;
	bustype PQ;
	voltage_A 133.1455-6.1625d kV;
	voltage_B 133.1455-126.1625d kV;
	voltage_C 133.1455+113.8375d kV;
}
object load {
	name bus346;
	phases ABC;
	nominal_voltage 127.017 kV;
	bustype PQ;
	voltage_A 132.1859-21.2984d kV;
	voltage_B 132.1859-141.2984d kV;
	voltage_C 132.1859+98.7016d kV;
	constant_power_A 65.8333+16.1000j MVA;
	constant_power_B 65.8333+16.1000j MVA;
	constant_power_C 65.8333+16.1000j MVA;
	constant_impedance_A 0.0000-68169.0141j Ohm;
	constant_impedance_B 0.0000-68169.0141j Ohm;
	constant_impedance_C 0.0000-68169.0141j Ohm;
}
object load {
	name bus350;
	phases ABC;
	nominal_voltage 127.017 kV;
	bustype PQ;
	voltage_A 132.5023-24.2951d kV;
	voltage_B 132.5023-144.2951d kV;
	voltage_C 132.5023+95.7049d kV;
	constant_power_A 36.8000+8.7333j MVA;
	constant_power_B 36.8000+8.7333j MVA;
	constant_power_C 36.8000+8.7333j MVA;
	constant_impedance_A 0.0000-8612.0996j Ohm;
	constant_impedance_B 0.0000-8612.0996j Ohm;
	constant_impedance_C 0.0000-8612.0996j Ohm;
}
object node {
	name bus352;
	phases ABC;
	nominal_voltage 219.393 kV;
	bustype PQ;
	voltage_A 231.5427+0.2630d kV;
	voltage_B 231.5427-119.7370d kV;
	voltage_C 231.5427+120.2630d kV;
}
object load {
	name bus367;
	phases ABC;
	nominal_voltage 127.017 kV;
	bustype PQ;
	voltage_A 136.1166-23.5993d kV;
	voltage_B 136.1166-143.5993d kV;
	voltage_C 136.1166+96.4007d kV;
	constant_power_A 21.7233-17.1667j MVA;
	constant_power_B 21.7233-17.1667j MVA;
	constant_power_C 21.7233-17.1667j MVA;
	constant_impedance_A 0.0000-9979.3814j Ohm;
	constant_impedance_B 0.0000-9979.3814j Ohm;
	constant_impedance_C 0.0000-9979.3814j Ohm;
}
object load {
	name bus401;
	phases ABC;
	nominal_voltage 127.017 kV;
	bustype PQ;
	voltage_A 130.3891-14.2621d kV;
	voltage_B 130.3891-134.2621d kV;
	voltage_C 130.3891+105.7379d kV;
	constant_power_A 18.8333+12.0967j MVA;
	constant_power_B 18.8333+12.0967j MVA;
	constant_power_C 18.8333+12.0967j MVA;
	constant_impedance_A 0.0000-15714.2857j Ohm;
	constant_impedance_B 0.0000-15714.2857j Ohm;
	constant_impedance_C 0.0000-15714.2857j Ohm;
}
object load {
	name bus408;
	phases ABC;
	nominal_voltage 127.017 kV;
	bustype PQ;
	voltage_A 132.0712-11.5499d kV;
	voltage_B 132.0712-131.5499d kV;
	voltage_C 132.0712+108.4501d kV;
	constant_power_A 43.0333+2.4667j MVA;
	constant_power_B 43.0333+2.4667j MVA;
	constant_power_C 43.0333+2.4667j MVA;
	constant_impedance_A 0.0000-1210000.0000j Ohm;
	constant_impedance_B 0.0000-1210000.0000j Ohm;
	constant_impedance_C 0.0000-1210000.0000j Ohm;
}
object load {
	name bus410;
	phases ABC;
	nominal_voltage 127.017 kV;
	bustype PQ;
	voltage_A 132.2964-26.4400d kV;
	voltage_B 132.2964-146.4400d kV;
	voltage_C 132.2964+93.5600d kV;
	constant_power_A 56.9633+16.7933j MVA;
	constant_power_B 56.9633+16.7933j MVA;
	constant_power_C 56.9633+16.7933j MVA;
	constant_impedance_A 0.0000-7515.5280j Ohm;
	constant_impedance_B 0.0000-7515.5280j Ohm;
	constant_impedance_C 0.0000-7515.5280j Ohm;
}
object node {
	name bus413;
	phases ABC;
	nominal_voltage 127.017 kV;
	bustype PQ;
	voltage_A 133.3844-6.6065d kV;
	voltage_B 133.3844-126.6065d kV;
	voltage_C 133.3844+113.3935d kV;
}
object load {
	name bus416;
	phases ABC;
	nominal_voltage 127.017 kV;
	bustype PQ;
	voltage_A 132.8344-6.7286d kV;
	voltage_B 132.8344-126.7286d kV;
	voltage_C 132.8344+113.2714d kV;
	constant_power_A 23.5600+4.5000j MVA;
	constant_power_B 23.5600+4.5000j MVA;
	constant_power_C 23.5600+4.5000j MVA;
	constant_impedance_A 0.0000-6954.0230j Ohm;
	constant_impedance_B 0.0000-6954.0230j Ohm;
	constant_impedance_C 0.0000-6954.0230j Ohm;
}
object load {
	name bus426;
	phases ABC;
	nominal_voltage 127.017 kV;
	bustype PQ;
	voltage_A 132.1599-18.3954d kV;
	voltage_B 132.1599-138.3954d kV;
	voltage_C 132.1599+101.6046d kV;
	constant_power_A 41.0333+2.1667j MVA;
	constant_power_B 41.0333+2.1667j MVA;
	constant_power_C 41.0333+2.1667j MVA;
	constant_impedance_A 0.0000-14892.3077j Ohm;
	constant_impedance_B 0.0000-14892.3077j Ohm;
	constant_impedance_C 0.0000-14892.3077j Ohm;
}
object load {
	name bus432;
	phases ABC;
	nominal_voltage 219.393 kV;
	bustype PQ;
	voltage_A 229.8744+2.4036d kV;
	voltage_B 229.8744-117.5964d kV;
	voltage_C 229.8744+122.4036d kV;
	constant_impedance_A 0.0000-2107.4858j Ohm;
	constant_impedance_B 0.0000-2107.4858j Ohm;
	constant_impedance_C 0.0000-2107.4858j Ohm;
}
object load {
	name bus444;
	phases ABC;
	nominal_voltage 127.017 kV;
	bustype PQ;
	voltage_A 131.6236-12.2014d kV;
	voltage_B 131.6236-132.2014d kV;
	voltage_C 131.6236+107.7986d kV;
	constant_impedance_A 0.0000-19755.1020j Ohm;
	constant_impedance_B 0.0000-19755.1020j Ohm;
	constant_impedance_C 0.0000-19755.1020j Ohm;
}
object load {
	name bus449;
	phases ABC;
	nominal_voltage 219.393 kV;
	bustype PQ;
	voltage_A 224.1625-8.4900d kV;
	voltage_B 224.1625-128.4900d kV;
	voltage_C 224.1625+111.5100d kV;
	constant_impedance_A 0.0000-4908.2257j Ohm;
	constant_impedance_B 0.0000-4908.2257j Ohm;
	constant_impedance_C 0.0000-4908.2257j Ohm;
}
object node {
	name bus453;
	phases ABC;
	nominal_voltage 219.393 kV;
	bustype PQ;
	voltage_A 223.5427-7.8570d kV;
	voltage_B 223.5427-127.8570d kV;
	voltage_C 223.5427+112.1430d kV;
}
object load {
	name bus455;
	phases ABC;
	nominal_voltage 127.017 kV;
	bustype PQ;
	voltage_A 132.8449-30.5965d kV;
	voltage_B 132.8449-150.5965d kV;
	voltage_C 132.8449+89.4035d kV;
	constant_power_A 91.4400+1.8867j MVA;
	constant_power_B 91.4400+1.8867j MVA;
	constant_power_C 91.4400+1.8867j MVA;
	constant_impedance_A 0.0000-3655.5891j Ohm;
	constant_impedance_B 0.0000-3655.5891j Ohm;
	constant_impedance_C 0.0000-3655.5891j Ohm;
}
object load {
	name bus490;
	phases ABC;
	nominal_voltage 127.017 kV;
	bustype PQ;
	voltage_A 131.6470-23.0143d kV;
	voltage_B 131.6470-143.0143d kV;
	voltage_C 131.6470+96.9857d kV;
	constant_power_A 6.8400+1.3333j MVA;
	constant_power_B 6.8400+1.3333j MVA;
	constant_power_C 6.8400+1.3333j MVA;
	constant_impedance_A 0.0000-17472.9242j Ohm;
	constant_impedance_B 0.0000-17472.9242j Ohm;
	constant_impedance_C 0.0000-17472.9242j Ohm;
}
object load {
	name bus500;
	phases ABC;
	nominal_voltage 127.017 kV;
	bustype PQ;
	voltage_A 132.1515-15.0425d kV;
	voltage_B 132.1515-135.0425d kV;
	voltage_C 132.1515+104.9575d kV;
	constant_power_A 48.1333+11.8333j MVA;
	constant_power_B 48.1333+11.8333j MVA;
	constant_power_C 48.1333+11.8333j MVA;
	constant_impedance_A 0.0000-6318.5379j Ohm;
	constant_impedance_B 0.0000-6318.5379j Ohm;
	constant_impedance_C 0.0000-6318.5379j Ohm;
}
object load {
	name bus502;
	phases ABC;
	nominal_voltage 127.017 kV;
	bustype PQ;
	voltage_A 132.5504-6.6755d kV;
	voltage_B 132.5504-126.6755d kV;
	voltage_C 132.5504+113.3245d kV;
	constant_impedance_A 0.0000-24693.8776j Ohm;
	constant_impedance_B 0.0000-24693.8776j Ohm;
	constant_impedance_C 0.0000-24693.8776j Ohm;
}
object load {
	name bus506;
	phases ABC;
	nominal_voltage 219.393 kV;
	bustype PQ;
	voltage_A 233.2800-9.0787d kV;
	voltage_B 233.2800-129.0787d kV;
	voltage_C 233.2800+110.9213d kV;
	constant_impedance_A 0.0000-361000.0000j Ohm;
	constant_impedance_B 0.0000-361000.0000j Ohm;
	constant_impedance_C 0.0000-361000.0000j Ohm;
}
object load {
	name bus513;
	phases ABC;
	nominal_voltage 127.017 kV;
	bustype PQ;
	voltage_A 131.9023-7.4434d kV;
	voltage_B 131.9023-127.4434d kV;
	voltage_C 131.9023+112.5566d kV;
	constant_power_A 19.1533+5.7000j MVA;
	constant_power_B 19.1533+5.7000j MVA;
	constant_power_C 19.1533+5.7000j MVA;
	constant_impedance_A 0.0000-30062.1118j Ohm;
	constant_impedance_B 0.0000-30062.1118j Ohm;
	constant_impedance_C 0.0000-30062.1118j Ohm;
}
object node {
	name bus516;
	phases ABC;
	nominal_voltage 127.017 kV;
	bustype PQ;
	voltage_A 136.6185-33.4535d kV;
	voltage_B 136.6185-153.4535d kV;
	voltage_C 136.6185+86.5465d kV;
}
object load {
	name bus520;
	phases ABC;
	nominal_voltage 127.017 kV;
	bustype PQ;
	voltage_A 133.1442-27.1088d kV;
	voltage_B 133.1442-147.1088d kV;
	voltage_C 133.1442+92.8912d kV;
	constant_power_A 39.5000+6.8000j MVA;
	constant_power_B 39.5000+6.8000j MVA;
	constant_power_C 39.5000+6.8000j MVA;
	constant_impedance_A 0.0000-18832.6848j Ohm;
	constant_impedance_B 0.0000-18832.6848j Ohm;
	constant_impedance_C 0.0000-18832.6848j Ohm;
}
object load {
	name bus549;
	phases ABC;
	nominal_voltage 127.017 kV;
	bustype PQ;
	voltage_A 136.4820-10.9596d kV;
	voltage_B 136.4820-130.9596d kV;
	voltage_C 136.4820+109.0404d kV;
	constant_impedance_A 0.0000-9398.0583j Ohm;
	constant_impedance_B 0.0000-9398.0583j Ohm;
	constant_impedance_C 0.0000-9398.0583j Ohm;
}
object load {
	name bus554;
	phases ABC;
	nominal_voltage 127.017 kV;
	bustype PQ;
	voltage_A 130.0745-20.7931d kV;
	voltage_B 130.0745-140.7931d kV;
	voltage_C 130.0745+99.2069d kV;
	constant_impedance_A 0.0000-24568.5279j Ohm;
	constant_impedance_B 0.0000-24568.5279j Ohm;
	constant_impedance_C 0.0000-24568.5279j Ohm;
}
object load {
	name bus556;
	phases ABC;
	nominal_voltage 127.017 kV;
	bustype PQ;
	voltage_A 131.7091-22.7630d kV;
	voltage_B 131.7091-142.7630d kV;
	voltage_C 131.7091+97.2370d kV;
	constant_power_A 5.5067+3.0000j MVA;
	constant_power_B 5.5067+3.0000j MVA;
	constant_power_C 5.5067+3.0000j MVA;
	constant_impedance_A 0.0000-41367.5214j Ohm;
	constant_impedance_B 0.0000-41367.5214j Ohm;
	constant_impedance_C 0.0000-41367.5214j Ohm;
}
object load {
	name bus561;
	phases ABC;
	nominal_voltage 127.017 kV;
	bustype PQ;
	voltage_A 134.0603-11.0218d kV;
	voltage_B 134.0603-131.0218d kV;
	voltage_C 134.0603+108.9782d kV;
	constant_impedance_A 0.0000-151250.0000j Ohm;
	constant_impedance_B 0.0000-151250.0000j Ohm;
	constant_impedance_C 0.0000-151250.0000j Ohm;
}
object node {
	name bus564;
	phases ABC;
	nominal_voltage 127.017 kV;
	bustype PQ;
	voltage_A 135.8850-47.0783d kV;
	voltage_B 135.8850-167.0783d kV;
	voltage_C 135.8850+72.9217d kV;
}
object load {
	name bus575;
	phases ABC;
	nominal_voltage 127.017 kV;
	bustype PQ;
	voltage_A 132.6515-11.1638d kV;
	voltage_B 132.6515-131.1638d kV;
	voltage_C 132.6515+108.8362d kV;
	constant_impedance_A 0.0000-72238.8060j Ohm;
	constant_impedance_B 0.0000-72238.8060j Ohm;
	constant_impedance_C 0.0000-72238.8060j Ohm;
}
object node {
	name bus583;
	phases ABC;
	nominal_voltage 127.017 kV;
	bustype PQ;
	voltage_A 132.7833-15.5686d kV;
	voltage_B 132.7833-135.5686d kV;
	voltage_C 132.7833+104.4314d kV;
}
object load {
	name bus594;
	phases ABC;
	nominal_voltage 127.017 kV;
	bustype PQ;
	voltage_A 131.6764-8.8697d kV;
	voltage_B 131.6764-128.8697d kV;
	voltage_C 131.6764+111.1303d kV;
	constant_power_A 22.5233+5.6667j MVA;
	constant_power_B 22.5233+5.6667j MVA;
	constant_power_C 22.5233+5.6667j MVA;
	constant_impedance_A 0.0000-8417.3913j Ohm;
	constant_impedance_B 0.0000-8417.3913j Ohm;
	constant_impedance_C 0.0000-8417.3913j Ohm;
}
object load {
	name bus601;
	phases ABC;
	nominal_voltage 127.017 kV;
	bustype PQ;
	voltage_A 132.1847-14.4183d kV;
	voltage_B 132.1847-134.4183d kV;
	voltage_C 132.1847+105.5817d kV;
	constant_power_A 46.8667+14.2000j MVA;
	constant_power_B 46.8667+14.2000j MVA;
	constant_power_C 46.8667+14.2000j MVA;
	constant_impedance_A 0.0000-8476.3573j Ohm;
	constant_impedance_B 0.0000-8476.3573j Ohm;
	constant_impedance_C 0.0000-8476.3573j Ohm;
}
object load {
	name bus604;
	phases ABC;
	nominal_voltage 219.393 kV;
	bustype PQ;
	voltage_A 218.7215-12.9357d kV;
	voltage_B 218.7215-132.9357d kV;
	voltage_C 218.7215+107.0643d kV;
	constant_power_A 11.0800+1.4667j MVA;
	constant_power_B 11.0800+1.4667j MVA;
	constant_power_C 11.0800+1.4667j MVA;
	constant_impedance_A 0.0000-5884.2706j Ohm;
	constant_impedance_B 0.0000-5884.2706j Ohm;
	constant_impedance_C 0.0000-5884.2706j Ohm;
}
object load {
	name bus608;
	phases ABC;
	nominal_voltage 127.017 kV;
	bustype PQ;
	voltage_A 136.1309-32.6683d kV;
	voltage_B 136.1309-152.6683d kV;
	voltage_C 136.1309+87.3317d kV;
	constant_power_A 50.3000+3.4667j MVA;
	constant_power_B 50.3000+3.4667j MVA;
	constant_power_C 50.3000+3.4667j MVA;
	constant_impedance_A 0.0000-10146.7505j Ohm;
	constant_impedance_B 0.0000-10146.7505j Ohm;
	constant_impedance_C 0.0000-10146.7505j Ohm;
}
object load {
	name bus609;
	phases ABC;
	nominal_voltage 127.017 kV;
	bustype PQ;
	voltage_A 130.2362-14.7795d kV;
	voltage_B 130.2362-134.7795d kV;
	voltage_C 130.2362+105.2205d kV;
	constant_impedance_A 0.0000-8536.1552j Ohm;
	constant_impedance_B 0.0000-8536.1552j Ohm;
	constant_impedance_C 0.0000-8536.1552j Ohm;
}
object node {
	name bus615;
	phases ABC;
	nominal_voltage 127.017 kV;
	bustype PQ;
	voltage_A 135.1304-10.6073d kV;
	voltage_B 135.1304-130.6073d kV;
	voltage_C 135.1304+109.3927d kV;
}
object node {
	name bus616;
	phases ABC;
	nominal_voltage 127.017 kV;
	bustype PQ;
	voltage_A 133.2044-12.9975d kV;
	voltage_B 133.2044-132.9975d kV;
	voltage_C 133.2044+107.0025d kV;
}
object load {
	name bus619;
	phases ABC;
	nominal_voltage 127.017 kV;
	bustype PQ;
	voltage_A 132.9541-25.2522d kV;
	voltage_B 132.9541-145.2522d kV;
	voltage_C 132.9541+94.7478d kV;
	constant_power_A 24.2933+4.8000j MVA;
	constant_power_B 24.2933+4.8000j MVA;
	constant_power_C 24.2933+4.8000j MVA;