module powerflow {
	solver_method NR;
	line_capacitance true;
	}
module assert;

object node {
	name bus1;
	phases ABC;
	nominal_voltage 7.967 kV;
	bustype SWING;
	voltage_A 8.2861+0.0000d kV;
	voltage_B 8.2861-120.0000d kV;
	voltage_C 8.2861+120.0000d kV;
}
object load {
	name bus2;
	phases ABC;
	nominal_voltage 66.395 kV;
	bustype PQ;
	voltage_A 65.1363-16.8377d kV;
	voltage_B 65.1363-136.8377d kV;
	voltage_C 65.1363+103.1623d kV;
	constant_power_A 83.2833+23.7367j MVA;
	constant_power_B 83.2833+23.7367j MVA;
	constant_power_C 83.2833+23.7367j MVA;
}
object load {
	name bus3;
	phases ABC;
	nominal_voltage 66.395 kV;
	bustype PQ;
	voltage_A 66.0078-14.8408d kV;
	voltage_B 66.0078-134.8408d kV;
	voltage_C 66.0078+105.1592d kV;
	constant_power_A 51.3067+14.6233j MVA;
	constant_power_B 51.3067+14.6233j MVA;
	constant_power_C 51.3067+14.6233j MVA;
}
object load {
	name bus4;
	phases ABC;
	nominal_voltage 66.395 kV;
	bustype PQ;
	voltage_A 65.4805-16.2613d kV;
	voltage_B 65.4805-136.2613d kV;
	voltage_C 65.4805+103.7387d kV;
	constant_power_A 61.0700+17.4067j MVA;
	constant_power_B 61.0700+17.4067j MVA;
	constant_power_C 61.0700+17.4067j MVA;
}
object load {
	name bus5;
	phases ABC;
	nominal_voltage 66.395 kV;
	bustype PQ;
	voltage_A 65.2690-16.7644d kV;
	voltage_B 65.2690-136.7644d kV;
	voltage_C 65.2690+103.2356d kV;
	constant_power_A 41.9467+11.9567j MVA;
	constant_power_B 41.9467+11.9567j MVA;
	constant_power_C 41.9467+11.9567j MVA;
}
object load {
	name bus6;
	phases ABC;
	nominal_voltage 66.395 kV;
	bustype PQ;
	voltage_A 65.5028-14.2172d kV;
	voltage_B 65.5028-134.2172d kV;
	voltage_C 65.5028+105.7828d kV;
	constant_power_A 7.1400+2.0333j MVA;
	constant_power_B 7.1400+2.0333j MVA;
	constant_power_C 7.1400+2.0333j MVA;
}
object load {
	name bus7;
	phases ABC;
	nominal_voltage 66.395 kV;
	bustype PQ;
	voltage_A 65.1679-16.8064d kV;
	voltage_B 65.1679-136.8064d kV;
	voltage_C 65.1679+103.1936d kV;
	constant_power_A 56.4400+16.0867j MVA;
	constant_power_B 56.4400+16.0867j MVA;
	constant_power_C 56.4400+16.0867j MVA;
}
object load {
	name bus8;
	phases ABC;
	nominal_voltage 66.395 kV;
	bustype PQ;
	voltage_A 65.6292-15.5092d kV;
	voltage_B 65.6292-135.5092d kV;
	voltage_C 65.6292+104.4908d kV;
	constant_power_A 24.6600+7.0267j MVA;
	constant_power_B 24.6600+7.0267j MVA;
	constant_power_C 24.6600+7.0267j MVA;
}
object load {
	name bus9;
	phases ABC;
	nominal_voltage 66.395 kV;
	bustype PQ;
	voltage_A 65.5599-16.1325d kV;
	voltage_B 65.5599-136.1325d kV;
	voltage_C 65.5599+103.8675d kV;
	constant_power_A 59.9333+17.0800j MVA;
	constant_power_B 59.9333+17.0800j MVA;
	constant_power_C 59.9333+17.0800j MVA;
}
object load {
	name bus10;
	phases ABC;
	nominal_voltage 66.395 kV;
	bustype PQ;
	voltage_A 66.8992-8.9785d kV;
	voltage_B 66.8992-128.9785d kV;
	voltage_C 66.8992+111.0215d kV;
	constant_power_A 13.5500+3.8633j MVA;
	constant_power_B 13.5500+3.8633j MVA;
	constant_power_C 13.5500+3.8633j MVA;
}
object load {
	name bus11;
	phases ABC;
	nominal_voltage 66.395 kV;
	bustype PQ;
	voltage_A 66.3344-10.5467d kV;
	voltage_B 66.3344-130.5467d kV;
	voltage_C 66.3344+109.4533d kV;
	constant_power_A 4.9767+1.4200j MVA;
	constant_power_B 4.9767+1.4200j MVA;
	constant_power_C 4.9767+1.4200j MVA;
}
object load {
	name bus12;
	phases ABC;
	nominal_voltage 66.395 kV;
	bustype PQ;
	voltage_A 64.9981-17.7265d kV;
	voltage_B 64.9981-137.7265d kV;
	voltage_C 64.9981+102.2735d kV;
	constant_power_A 18.3200+5.2200j MVA;
	constant_power_B 18.3200+5.2200j MVA;
	constant_power_C 18.3200+5.2200j MVA;
}
object load {
	name bus13;
	phases ABC;
	nominal_voltage 66.395 kV;
	bustype PQ;
	voltage_A 65.6699-15.6880d kV;
	voltage_B 65.6699-135.6880d kV;
	voltage_C 65.6699+104.3120d kV;
	constant_power_A 78.3133+22.3200j MVA;
	constant_power_B 78.3133+22.3200j MVA;
	constant_power_C 78.3133+22.3200j MVA;
}
object load {
	name bus14;
	phases ABC;
	nominal_voltage 66.395 kV;
	bustype PQ;
	voltage_A 65.5298-16.0295d kV;
	voltage_B 65.5298-136.0295d kV;
	voltage_C 65.5298+103.9705d kV;
	constant_power_A 67.6267+19.2733j MVA;
	constant_power_B 67.6267+19.2733j MVA;
	constant_power_C 67.6267+19.2733j MVA;
}
object load {
	name bus15;
	phases ABC;
	nominal_voltage 66.395 kV;
	bustype PQ;
	voltage_A 64.9261-17.3419d kV;
	voltage_B 64.9261-137.3419d kV;
	voltage_C 64.9261+102.6581d kV;
	constant_power_A 34.3100+9.7800j MVA;
	constant_power_B 34.3100+9.7800j MVA;
	constant_power_C 34.3100+9.7800j MVA;
}
object load {
	name bus16;
	phases ABC;
	nominal_voltage 66.395 kV;
	bustype PQ;
	voltage_A 64.9881-16.1244d kV;
	voltage_B 64.9881-136.1244d kV;
	voltage_C 64.9881+103.8756d kV;
	constant_power_A 22.7400+6.4800j MVA;
	constant_power_B 22.7400+6.4800j MVA;
	constant_power_C 22.7400+6.4800j MVA;
}
object load {
	name bus17;
	phases ABC;
	nominal_voltage 66.395 kV;
	bustype PQ;
	voltage_A 65.0569-16.7882d kV;
	voltage_B 65.0569-136.7882d kV;
	voltage_C 65.0569+103.2118d kV;
	constant_power_A 59.0933+16.8400j MVA;
	constant_power_B 59.0933+16.8400j MVA;
	constant_power_C 59.0933+16.8400j MVA;
}
object load {
	name bus18;
	phases ABC;
	nominal_voltage 66.395 kV;
	bustype PQ;
	voltage_A 65.2153-15.4629d kV;
	voltage_B 65.2153-135.4629d kV;
	voltage_C 65.2153+104.5371d kV;
	constant_power_A 38.6400+11.0133j MVA;
	constant_power_B 38.6400+11.0133j MVA;
	constant_power_C 38.6400+11.0133j MVA;
}
object load {
	name bus19;
	phases ABC;
	nominal_voltage 66.395 kV;
	bustype PQ;
	voltage_A 65.6076-15.0834d kV;
	voltage_B 65.6076-135.0834d kV;
	voltage_C 65.6076+104.9166d kV;
	constant_power_A 22.5900+6.4400j MVA;
	constant_power_B 22.5900+6.4400j MVA;
	constant_power_C 22.5900+6.4400j MVA;
}
object load {
	name bus20;
	phases ABC;
	nominal_voltage 66.395 kV;
	bustype PQ;
	voltage_A 65.4967-15.4301d kV;
	voltage_B 65.4967-135.4301d kV;
	voltage_C 65.4967+104.5699d kV;
	constant_power_A 8.9633+2.5533j MVA;
	constant_power_B 8.9633+2.5533j MVA;
	constant_power_C 8.9633+2.5533j MVA;
}
object load {
	name bus21;
	phases ABC;
	nominal_voltage 66.395 kV;
	bustype PQ;
	voltage_A 65.1740-16.6212d kV;
	voltage_B 65.1740-136.6212d kV;
	voltage_C 65.1740+103.3788d kV;
	constant_power_A 48.2700+13.7567j MVA;
	constant_power_B 48.2700+13.7567j MVA;
	constant_power_C 48.2700+13.7567j MVA;
}
object load {
	name bus22;
	phases ABC;
	nominal_voltage 66.395 kV;
	bustype PQ;
	voltage_A 65.0108-16.9200d kV;
	voltage_B 65.0108-136.9200d kV;
	voltage_C 65.0108+103.0800d kV;
	constant_power_A 55.7267+15.8833j MVA;
	constant_power_B 55.7267+15.8833j MVA;
	constant_power_C 55.7267+15.8833j MVA;
}
object load {
	name bus23;
	phases ABC;
	nominal_voltage 66.395 kV;
	bustype PQ;
	voltage_A 65.1529-16.6488d kV;
	voltage_B 65.1529-136.6488d kV;
	voltage_C 65.1529+103.3512d kV;
	constant_power_A 47.2067+13.4533j MVA;
	constant_power_B 47.2067+13.4533j MVA;
	constant_power_C 47.2067+13.4533j MVA;
}
object load {
	name bus24;
	phases ABC;
	nominal_voltage 66.395 kV;
	bustype PQ;
	voltage_A 65.4763-16.1616d kV;
	voltage_B 65.4763-136.1616d kV;
	voltage_C 65.4763+103.8384d kV;
	constant_power_A 50.3733+14.3567j MVA;
	constant_power_B 50.3733+14.3567j MVA;
	constant_power_C 50.3733+14.3567j MVA;
}
object load {
	name bus25;
	phases ABC;
	nominal_voltage 66.395 kV;
	bustype PQ;
	voltage_A 65.6611-15.8460d kV;
	voltage_B 65.6611-135.8461d kV;
	voltage_C 65.6611+104.1540d kV;
	constant_power_A 41.1000+11.7133j MVA;
	constant_power_B 41.1000+11.7133j MVA;
	constant_power_C 41.1000+11.7133j MVA;
}
object load {
	name bus26;
	phases ABC;
	nominal_voltage 66.395 kV;
	bustype PQ;
	voltage_A 65.2216-15.5511d kV;
	voltage_B 65.2216-135.5511d kV;
	voltage_C 65.2216+104.4489d kV;
	constant_power_A 33.3500+9.5033j MVA;
	constant_power_B 33.3500+9.5033j MVA;
	constant_power_C 33.3500+9.5033j MVA;
}
object load {
	name bus27;
	phases ABC;
	nominal_voltage 66.395 kV;
	bustype PQ;
	voltage_A 65.7499-14.7117d kV;
	voltage_B 65.7499-134.7117d kV;
	voltage_C 65.7499+105.2883d kV;
	constant_power_A 31.9233+9.0967j MVA;
	constant_power_B 31.9233+9.0967j MVA;
	constant_power_C 31.9233+9.0967j MVA;
}
object load {
	name bus28;
	phases ABC;
	nominal_voltage 66.395 kV;
	bustype PQ;
	voltage_A 65.3405-15.5070d kV;
	voltage_B 65.3405-135.5070d kV;
	voltage_C 65.3405+104.4930d kV;
	constant_power_A 72.3167+20.6100j MVA;
	constant_power_B 72.3167+20.6100j MVA;
	constant_power_C 72.3167+20.6100j MVA;
}
object load {
	name bus29;
	phases ABC;
	nominal_voltage 66.395 kV;
	bustype PQ;
	voltage_A 65.2056-15.0236d kV;
	voltage_B 65.2056-135.0236d kV;
	voltage_C 65.2056+104.9764d kV;
	constant_power_A 4.1067+1.1700j MVA;
	constant_power_B 4.1067+1.1700j MVA;
	constant_power_C 4.1067+1.1700j MVA;
}
object load {
	name bus30;
	phases ABC;
	nominal_voltage 66.395 kV;
	bustype PQ;
	voltage_A 65.1486-16.9683d kV;
	voltage_B 65.1486-136.9683d kV;
	voltage_C 65.1486+103.0317d kV;
	constant_power_A 60.0333+17.1100j MVA;
	constant_power_B 60.0333+17.1100j MVA;
	constant_power_C 60.0333+17.1100j MVA;
}
object load {
	name bus31;
	phases ABC;
	nominal_voltage 66.395 kV;
	bustype PQ;
	voltage_A 65.3500-14.6427d kV;
	voltage_B 65.3500-134.6427d kV;
	voltage_C 65.3500+105.3573d kV;
	constant_power_A 1.8467+0.5267j MVA;
	constant_power_B 1.8467+0.5267j MVA;
	constant_power_C 1.8467+0.5267j MVA;
}
object load {
	name bus32;
	phases ABC;
	nominal_voltage 66.395 kV;
	bustype PQ;
	voltage_A 65.5535-15.4641d kV;
	voltage_B 65.5535-135.4641d kV;
	voltage_C 65.5535+104.5359d kV;
	constant_power_A 116.9767+33.3400j MVA;
	constant_power_B 116.9767+33.3400j MVA;
	constant_power_C 116.9767+33.3400j MVA;
}
object load {
	name bus33;
	phases ABC;
	nominal_voltage 66.395 kV;
	bustype PQ;
	voltage_A 64.8346-18.0849d kV;
	voltage_B 64.8346-138.0849d kV;
	voltage_C 64.8346+101.9151d kV;
	constant_power_A 8.7333+2.4900j MVA;
	constant_power_B 8.7333+2.4900j MVA;
	constant_power_C 8.7333+2.4900j MVA;
}
object load {
	name bus34;
	phases ABC;
	nominal_voltage 66.395 kV;
	bustype PQ;
	voltage_A 64.4130-17.6244d kV;
	voltage_B 64.4130-137.6245d kV;
	voltage_C 64.4130+102.3755d kV;
	constant_power_A 28.3867+8.0900j MVA;
	constant_power_B 28.3867+8.0900j MVA;
	constant_power_C 28.3867+8.0900j MVA;
}
object load {
	name bus35;
	phases ABC;
	nominal_voltage 66.395 kV;
	bustype PQ;
	voltage_A 66.3392-13.5633d kV;
	voltage_B 66.3392-133.5633d kV;
	voltage_C 66.3392+106.4367d kV;
	constant_power_A 27.7167+7.9000j MVA;
	constant_power_B 27.7167+7.9000j MVA;
	constant_power_C 27.7167+7.9000j MVA;
}
object load {
	name bus36;
	phases ABC;
	nominal_voltage 66.395 kV;
	bustype PQ;
	voltage_A 65.0960-15.5816d kV;
	voltage_B 65.0960-135.5816d kV;
	voltage_C 65.0960+104.4184d kV;
	constant_power_A 60.7267+17.3067j MVA;
	constant_power_B 60.7267+17.3067j MVA;
	constant_power_C 60.7267+17.3067j MVA;
}
object load {
	name bus37;
	phases ABC;
	nominal_voltage 66.395 kV;
	bustype PQ;
	voltage_A 65.9036-14.1623d kV;
	voltage_B 65.9036-134.1623d kV;
	voltage_C 65.9036+105.8377d kV;
	constant_power_A 29.3267+8.3567j MVA;
	constant_power_B 29.3267+8.3567j MVA;
	constant_power_C 29.3267+8.3567j MVA;
}
object load {
	name bus38;
	phases ABC;
	nominal_voltage 66.395 kV;
	bustype PQ;
	voltage_A 65.6812-15.5789d kV;
	voltage_B 65.6812-135.5789d kV;
	voltage_C 65.6812+104.4211d kV;
	constant_power_A 36.2600+10.3333j MVA;
	constant_power_B 36.2600+10.3333j MVA;
	constant_power_C 36.2600+10.3333j MVA;
}
object load {
	name bus39;
	phases ABC;
	nominal_voltage 66.395 kV;
	bustype PQ;
	voltage_A 65.4585-16.2069d kV;
	voltage_B 65.4585-136.2069d kV;
	voltage_C 65.4585+103.7931d kV;
	constant_power_A 27.0267+7.7033j MVA;
	constant_power_B 27.0267+7.7033j MVA;
	constant_power_C 27.0267+7.7033j MVA;
}
object load {
	name bus40;
	phases ABC;
	nominal_voltage 66.395 kV;
	bustype PQ;
	voltage_A 66.6908-9.7525d kV;
	voltage_B 66.6908-129.7525d kV;
	voltage_C 66.6908+110.2475d kV;
	constant_power_A 4.5700+1.3033j MVA;
	constant_power_B 4.5700+1.3033j MVA;
	constant_power_C 4.5700+1.3033j MVA;
}
object load {
	name bus41;
	phases ABC;
	nominal_voltage 66.395 kV;
	bustype PQ;
	voltage_A 64.7642-18.3642d kV;
	voltage_B 64.7642-138.3642d kV;
	voltage_C 64.7642+101.6358d kV;
	constant_power_A 28.7067+8.1833j MVA;
	constant_power_B 28.7067+8.1833j MVA;
	constant_power_C 28.7067+8.1833j MVA;
}
object load {
	name bus42;
	phases ABC;
	nominal_voltage 66.395 kV;
	bustype PQ;
	voltage_A 65.8148-14.6799d kV;
	voltage_B 65.8148-134.6799d kV;
	voltage_C 65.8148+105.3201d kV;
	constant_power_A 8.6067+2.4533j MVA;
	constant_power_B 8.6067+2.4533j MVA;
	constant_power_C 8.6067+2.4533j MVA;
}
object load {
	name bus43;
	phases ABC;
	nominal_voltage 66.395 kV;
	bustype PQ;
	voltage_A 65.3262-16.5148d kV;
	voltage_B 65.3262-136.5148d kV;
	voltage_C 65.3262+103.4852d kV;
	constant_power_A 63.5133+18.1000j MVA;
	constant_power_B 63.5133+18.1000j MVA;
	constant_power_C 63.5133+18.1000j MVA;
}
object load {
	name bus44;
	phases ABC;
	nominal_voltage 66.395 kV;
	bustype PQ;
	voltage_A 65.5924-15.3083d kV;
	voltage_B 65.5924-135.3083d kV;
	voltage_C 65.5924+104.6917d kV;
	constant_power_A 22.8700+6.5167j MVA;
	constant_power_B 22.8700+6.5167j MVA;
	constant_power_C 22.8700+6.5167j MVA;
}
object load {
	name bus45;
	phases ABC;
	nominal_voltage 66.395 kV;
	bustype PQ;
	voltage_A 65.4644-16.5120d kV;
	voltage_B 65.4644-136.5120d kV;
	voltage_C 65.4644+103.4880d kV;
	constant_power_A 20.0800+5.7233j MVA;
	constant_power_B 20.0800+5.7233j MVA;
	constant_power_C 20.0800+5.7233j MVA;
}
object load {
	name bus46;
	phases ABC;
	nominal_voltage 66.395 kV;
	bustype PQ;
	voltage_A 66.1939-10.9031d kV;
	voltage_B 66.1939-130.9031d kV;
	voltage_C 66.1939+109.0969d kV;
	constant_power_A 14.6967+4.1900j MVA;
	constant_power_B 14.6967+4.1900j MVA;
	constant_power_C 14.6967+4.1900j MVA;
}
object load {
	name bus47;
	phases ABC;
	nominal_voltage 66.395 kV;
	bustype PQ;
	voltage_A 66.0086-11.7289d kV;
	voltage_B 66.0086-131.7289d kV;
	voltage_C 66.0086+108.2711d kV;
	constant_power_A 14.1500+4.0333j MVA;
	constant_power_B 14.1500+4.0333j MVA;
	constant_power_C 14.1500+4.0333j MVA;
}
object load {
	name bus48;
	phases ABC;
	nominal_voltage 66.395 kV;
	bustype PQ;
	voltage_A 66.0266-14.9473d kV;
	voltage_B 66.0266-134.9473d kV;
	voltage_C 66.0266+105.0527d kV;
	constant_power_A 16.7233+4.7667j MVA;
	constant_power_B 16.7233+4.7667j MVA;
	constant_power_C 16.7233+4.7667j MVA;
}
object load {
	name bus49;
	phases ABC;
	nominal_voltage 66.395 kV;
	bustype PQ;
	voltage_A 65.9887-14.3940d kV;
	voltage_B 65.9887-134.3940d kV;
	voltage_C 65.9887+105.6060d kV;
	constant_power_A 39.1633+11.1600j MVA;
	constant_power_B 39.1633+11.1600j MVA;
	constant_power_C 39.1633+11.1600j MVA;
}
object load {
	name bus50;
	phases ABC;
	nominal_voltage 66.395 kV;
	bustype PQ;
	voltage_A 66.2314-13.3175d kV;
	voltage_B 66.2314-133.3175d kV;
	voltage_C 66.2314+106.6825d kV;
	constant_power_A 0.5233+0.1500j MVA;
	constant_power_B 0.5233+0.1500j MVA;
	constant_power_C 0.5233+0.1500j MVA;
}
object load {
	name bus51;
	phases ABC;
	nominal_voltage 66.395 kV;
	bustype PQ;
	voltage_A 67.7230-10.3422d kV;
	voltage_B 67.7230-130.3422d kV;
	voltage_C 67.7230+109.6578d kV;
	constant_power_A 1.0733+0.3067j MVA;
	constant_power_B 1.0733+0.3067j MVA;
	constant_power_C 1.0733+0.3067j MVA;
}
object load {
	name bus52;
	phases ABC;
	nominal_voltage 66.395 kV;
	bustype PQ;
	voltage_A 66.5721-15.5338d kV;
	voltage_B 66.5721-135.5338d kV;
	voltage_C 66.5721+104.4662d kV;
	constant_power_A 6.6933+1.9067j MVA;
	constant_power_B 6.6933+1.9067j MVA;
	constant_power_C 6.6933+1.9067j MVA;
}
object load {
	name bus53;
	phases ABC;
	nominal_voltage 66.395 kV;
	bustype PQ;
	voltage_A 65.0762-16.0308d kV;
	voltage_B 65.0762-136.0308d kV;
	voltage_C 65.0762+103.9692d kV;
	constant_power_A 36.8700+10.5067j MVA;
	constant_power_B 36.8700+10.5067j MVA;
	constant_power_C 36.8700+10.5067j MVA;
}
object load {
	name bus54;
	phases ABC;
	nominal_voltage 66.395 kV;
	bustype PQ;
	voltage_A 66.9203-11.9934d kV;
	voltage_B 66.9203-131.9935d kV;
	voltage_C 66.9203+108.0065d kV;
	constant_power_A 0.2433+0.0700j MVA;
	constant_power_B 0.2433+0.0700j MVA;
	constant_power_C 0.2433+0.0700j MVA;
}
object load {
	name bus55;
	phases ABC;
	nominal_voltage 66.395 kV;
	bustype PQ;
	voltage_A 67.0924-11.1541d kV;
	voltage_B 67.0924-131.1541d kV;
	voltage_C 67.0924+108.8459d kV;
	constant_power_A 2.9733+0.8467j MVA;
	constant_power_B 2.9733+0.8467j MVA;
	constant_power_C 2.9733+0.8467j MVA;
}
object load {
	name bus56;
	phases ABC;
	nominal_voltage 66.395 kV;
	bustype PQ;
	voltage_A 67.7375-9.9111d kV;
	voltage_B 67.7375-129.9111d kV;
	voltage_C 67.7375+110.0889d kV;
	constant_power_A 22.8600+6.5133j MVA;
	constant_power_B 22.8600+6.5133j MVA;
	constant_power_C 22.8600+6.5133j MVA;
}
object load {
	name bus57;
	phases ABC;
	nominal_voltage 66.395 kV;
	bustype PQ;
	voltage_A 65.9968-16.4022d kV;
	voltage_B 65.9968-136.4022d kV;
	voltage_C 65.9968+103.5978d kV;
	constant_power_A 3.7867+1.0800j MVA;
	constant_power_B 3.7867+1.0800j MVA;
	constant_power_C 3.7867+1.0800j MVA;
}
object load {
	name bus58;
	phases ABC;
	nominal_voltage 66.395 kV;
	bustype PQ;
	voltage_A 66.9749-17.0066d kV;
	voltage_B 66.9749-137.0066d kV;
	voltage_C 66.9749+102.9934d kV;
	constant_power_A 39.7167+11.3200j MVA;
	constant_power_B 39.7167+11.3200j MVA;
	constant_power_C 39.7167+11.3200j MVA;
	constant_impedance_A 0.0000-165.3125j Ohm;
	constant_impedance_B 0.0000-165.3125j Ohm;
	constant_impedance_C 0.0000-165.3125j Ohm;
}
object load {
	name bus59;
	phases ABC;
	nominal_voltage 66.395 kV;
	bustype PQ;
	voltage_A 65.0084-16.2141d kV;
	voltage_B 65.0084-136.2141d kV;
	voltage_C 65.0084+103.7859d kV;
	constant_power_A 55.1333+15.7133j MVA;
	constant_power_B 55.1333+15.7133j MVA;
	constant_power_C 55.1333+15.7133j MVA;
}
object load {
	name bus60;
	phases ABC;
	nominal_voltage 66.395 kV;
	bustype PQ;
	voltage_A 66.9269-15.0241d kV;
	voltage_B 66.9269-135.0241d kV;
	voltage_C 66.9269+104.9759d kV;
	constant_power_A 1.9400+0.5533j MVA;
	constant_power_B 1.9400+0.5533j MVA;
	constant_power_C 1.9400+0.5533j MVA;
}
object load {
	name bus61;
	phases ABC;
	nominal_voltage 66.395 kV;
	bustype PQ;
	voltage_A 66.1106-13.4830d kV;
	voltage_B 66.1106-133.4830d kV;
	voltage_C 66.1106+106.5170d kV;
	constant_power_A 21.6167+6.1600j MVA;
	constant_power_B 21.6167+6.1600j MVA;
	constant_power_C 21.6167+6.1600j MVA;
}
object load {
	name bus62;
	phases ABC;
	nominal_voltage 66.395 kV;
	bustype PQ;
	voltage_A 66.3053-15.2777d kV;
	voltage_B 66.3053-135.2777d kV;
	voltage_C 66.3053+104.7223d kV;
	constant_power_A 2.3167+0.6600j MVA;
	constant_power_B 2.3167+0.6600j MVA;
	constant_power_C 2.3167+0.6600j MVA;
}
object load {
	name bus63;
	phases ABC;
	nominal_voltage 66.395 kV;
	bustype PQ;
	voltage_A 65.9231-15.0162d kV;
	voltage_B 65.9231-135.0163d kV;
	voltage_C 65.9231+104.9838d kV;
	constant_power_A 5.4367+1.5500j MVA;
	constant_power_B 5.4367+1.5500j MVA;
	constant_power_C 5.4367+1.5500j MVA;
}
object load {
	name bus64;
	phases ABC;
	nominal_voltage 66.395 kV;
	bustype PQ;
	voltage_A 66.5903-17.0978d kV;
	voltage_B 66.5903-137.0978d kV;
	voltage_C 66.5903+102.9022d kV;
	constant_power_A 27.1367+7.7333j MVA;
	constant_power_B 27.1367+7.7333j MVA;
	constant_power_C 27.1367+7.7333j MVA;
	constant_impedance_A 0.0000-188.9286j Ohm;
	constant_impedance_B 0.0000-188.9286j Ohm;
	constant_impedance_C 0.0000-188.9286j Ohm;
}
object load {
	name bus65;
	phases ABC;
	nominal_voltage 66.395 kV;
	bustype PQ;
	voltage_A 67.1144-14.5846d kV;
	voltage_B 67.1144-134.5846d kV;
	voltage_C 67.1144+105.4154d kV;
	constant_power_A 0.8300+0.2367j MVA;
	constant_power_B 0.8300+0.2367j MVA;
	constant_power_C 0.8300+0.2367j MVA;
}
object load {
	name bus66;
	phases ABC;
	nominal_voltage 66.395 kV;
	bustype PQ;
	voltage_A 65.7780-15.8412d kV;
	voltage_B 65.7780-135.8412d kV;
	voltage_C 65.7780+104.1588d kV;
	constant_power_A 0.2400+0.0667j MVA;
	constant_power_B 0.2400+0.0667j MVA;
	constant_power_C 0.2400+0.0667j MVA;
}
object load {
	name bus67;
	phases ABC;
	nominal_voltage 66.395 kV;
	bustype PQ;
	voltage_A 65.2824-17.1820d kV;
	voltage_B 65.2824-137.1820d kV;
	voltage_C 65.2824+102.8180d kV;
	constant_power_A 16.4767+4.6967j MVA;
	constant_power_B 16.4767+4.6967j MVA;
	constant_power_C 16.4767+4.6967j MVA;
	constant_impedance_A 0.0000-264.5000j Ohm;
	constant_impedance_B 0.0000-264.5000j Ohm;
	constant_impedance_C 0.0000-264.5000j Ohm;
}
object load {
	name bus68;
	phases ABC;
	nominal_voltage 66.395 kV;
	bustype PQ;
	voltage_A 65.7294-15.4773d kV;
	voltage_B 65.7294-135.4773d kV;
	voltage_C 65.7294+104.5227d kV;
	constant_power_A 4.8033+1.3700j MVA;
	constant_power_B 4.8033+1.3700j MVA;
	constant_power_C 4.8033+1.3700j MVA;
}
object load {
	name bus69;
	phases ABC;
	nominal_voltage 66.395 kV;
	bustype PQ;
	voltage_A 67.2122-14.0434d kV;
	voltage_B 67.2122-134.0434d kV;
	voltage_C 67.2122+105.9566d kV;
	constant_power_A 3.6233+1.0333j MVA;
	constant_power_B 3.6233+1.0333j MVA;
	constant_power_C 3.6233+1.0333j MVA;
}
object load {
	name bus70;
	phases ABC;
	nominal_voltage 66.395 kV;
	bustype PQ;
	voltage_A 65.4680-16.0591d kV;
	voltage_B 65.4680-136.0591d kV;
	voltage_C 65.4680+103.9409d kV;
	constant_power_A 7.5800+2.1600j MVA;
	constant_power_B 7.5800+2.1600j MVA;
	constant_power_C 7.5800+2.1600j MVA;
}
object load {
	name bus71;
	phases ABC;
	nominal_voltage 66.395 kV;
	bustype PQ;
	voltage_A 64.9217-16.7461d kV;
	voltage_B 64.9217-136.7461d kV;
	voltage_C 64.9217+103.2539d kV;
	constant_power_A 15.4233+4.3967j MVA;
	constant_power_B 15.4233+4.3967j MVA;
	constant_power_C 15.4233+4.3967j MVA;
}
object load {
	name bus72;
	phases ABC;
	nominal_voltage 66.395 kV;
	bustype PQ;
	voltage_A 66.1184-14.2718d kV;
	voltage_B 66.1184-134.2718d kV;
	voltage_C 66.1184+105.7282d kV;
	constant_power_A 11.8800+3.3867j MVA;
	constant_power_B 11.8800+3.3867j MVA;
	constant_power_C 11.8800+3.3867j MVA;
}
object load {
	name bus73;
	phases ABC;
	nominal_voltage 66.395 kV;
	bustype PQ;
	voltage_A 66.4247-13.9317d kV;
	voltage_B 66.4247-133.9317d kV;
	voltage_C 66.4247+106.0683d kV;
	constant_power_A 2.6733+0.7633j MVA;
	constant_power_B 2.6733+0.7633j MVA;
	constant_power_C 2.6733+0.7633j MVA;
}
object load {
	name bus74;
	phases ABC;
	nominal_voltage 66.395 kV;
	bustype PQ;
	voltage_A 65.2275-16.7235d kV;
	voltage_B 65.2275-136.7235d kV;
	voltage_C 65.2275+103.2765d kV;
	constant_power_A 14.6200+4.1667j MVA;
	constant_power_B 14.6200+4.1667j MVA;
	constant_power_C 14.6200+4.1667j MVA;
}
object load {
	name bus75;
	phases ABC;
	nominal_voltage 66.395 kV;
	bustype PQ;
	voltage_A 65.6590-16.1472d kV;
	voltage_B 65.6590-136.1472d kV;
	voltage_C 65.6590+103.8528d kV;
	constant_power_A 5.3633+1.5300j MVA;
	constant_power_B 5.3633+1.5300j MVA;
	constant_power_C 5.3633+1.5300j MVA;
}
object load {
	name bus76;
	phases ABC;
	nominal_voltage 66.395 kV;
	bustype PQ;
	voltage_A 68.2073-12.5790d kV;
	voltage_B 68.2073-132.5790d kV;
	voltage_C 68.2073+107.4210d kV;
	constant_power_A 3.0433+0.8667j MVA;
	constant_power_B 3.0433+0.8667j MVA;
	constant_power_C 3.0433+0.8667j MVA;
}
object load {
	name bus77;
	phases ABC;
	nominal_voltage 66.395 kV;
	bustype PQ;
	voltage_A 64.7468-17.2248d kV;
	voltage_B 64.7468-137.2248d kV;
	voltage_C 64.7468+102.7752d kV;
	constant_power_A 45.5567+12.9833j MVA;
	constant_power_B 45.5567+12.9833j MVA;
	constant_power_C 45.5567+12.9833j MVA;
}
object load {
	name bus78;
	phases ABC;
	nominal_voltage 66.395 kV;
	bustype PQ;
	voltage_A 64.7971-17.2452d kV;
	voltage_B 64.7971-137.2452d kV;
	voltage_C 64.7971+102.7548d kV;
	constant_power_A 47.7233+13.6000j MVA;
	constant_power_B 47.7233+13.6000j MVA;
	constant_power_C 47.7233+13.6000j MVA;
}
object load {
	name bus79;
	phases ABC;
	nominal_voltage 66.395 kV;
	bustype PQ;
	voltage_A 66.6854-13.5169d kV;
	voltage_B 66.6854-133.5170d kV;
	voltage_C 66.6854+106.4831d kV;
	constant_power_A 3.7433+1.0667j MVA;
	constant_power_B 3.7433+1.0667j MVA;
	constant_power_C 3.7433+1.0667j MVA;
}
object load {
	name bus80;
	phases ABC;
	nominal_voltage 66.395 kV;
	bustype PQ;
	voltage_A 66.7376-12.2594d kV;
	voltage_B 66.7376-132.2594d kV;
	voltage_C 66.7376+107.7406d kV;
	constant_power_A 0.4900+0.1400j MVA;
	constant_power_B 0.4900+0.1400j MVA;
	constant_power_C 0.4900+0.1400j MVA;
}
object load {
	name bus81;
	phases ABC;
	nominal_voltage 66.395 kV;
	bustype PQ;
	voltage_A 64.6851-16.1520d kV;
	voltage_B 64.6851-136.1520d kV;
	voltage_C 64.6851+103.8480d kV;
	constant_power_A 29.2867+8.3467j MVA;
	constant_power_B 29.2867+8.3467j MVA;
	constant_power_C 29.2867+8.3467j MVA;
}
object load {
	name bus82;
	phases ABC;
	nominal_voltage 66.395 kV;
	bustype PQ;
	voltage_A 66.5767-12.6120d kV;
	voltage_B 66.5767-132.6120d kV;
	voltage_C 66.5767+107.3880d kV;
	constant_power_A 2.0967+0.5967j MVA;
	constant_power_B 2.0967+0.5967j MVA;
	constant_power_C 2.0967+0.5967j MVA;
}
object load {
	name bus83;
	phases ABC;
	nominal_voltage 66.395 kV;
	bustype PQ;
	voltage_A 66.9758-14.3414d kV;
	voltage_B 66.9758-134.3415d kV;
	voltage_C 66.9758+105.6585d kV;
	constant_power_A 11.8467+3.3767j MVA;
	constant_power_B 11.8467+3.3767j MVA;
	constant_power_C 11.8467+3.3767j MVA;
}
object load {
	name bus84;
	phases ABC;
	nominal_voltage 66.395 kV;
	bustype PQ;
	voltage_A 66.6129-14.1922d kV;
	voltage_B 66.6129-134.1922d kV;
	voltage_C 66.6129+105.8078d kV;
	constant_power_A 3.6167+1.0300j MVA;
	constant_power_B 3.6167+1.0300j MVA;
	constant_power_C 3.6167+1.0300j MVA;
}
object load {
	name bus85;
	phases ABC;
	nominal_voltage 66.395 kV;
	bustype PQ;
	voltage_A 65.7545-15.7820d kV;
	voltage_B 65.7545-135.7820d kV;
	voltage_C 65.7545+104.2180d kV;
	constant_power_A 14.9033+4.2467j MVA;
	constant_power_B 14.9033+4.2467j MVA;
	constant_power_C 14.9033+4.2467j MVA;
}
object load {
	name bus86;
	phases ABC;
	nominal_voltage 66.395 kV;
	bustype PQ;
	voltage_A 66.3274-15.1919d kV;
	voltage_B 66.3274-135.1919d kV;
	voltage_C 66.3274+104.8081d kV;
	constant_power_A 19.2000+5.4700j MVA;
	constant_power_B 19.2000+5.4700j MVA;
	constant_power_C 19.2000+5.4700j MVA;
}
object load {
	name bus87;
	phases ABC;
	nominal_voltage 66.395 kV;
	bustype PQ;
	voltage_A 66.6974-12.6834d kV;
	voltage_B 66.6974-132.6834d kV;
	voltage_C 66.6974+107.3166d kV;
	constant_power_A 5.0100+1.4267j MVA;
	constant_power_B 5.0100+1.4267j MVA;
	constant_power_C 5.0100+1.4267j MVA;
}
object load {
	name bus88;
	phases ABC;
	nominal_voltage 66.395 kV;
	bustype PQ;
	voltage_A 68.0918-12.8392d kV;
	voltage_B 68.0918-132.8392d kV;
	voltage_C 68.0918+107.1608d kV;
	constant_power_A 1.1900+0.3400j MVA;
	constant_power_B 1.1900+0.3400j MVA;
	constant_power_C 1.1900+0.3400j MVA;
}
object load {
	name bus89;
	phases ABC;
	nominal_voltage 66.395 kV;
	bustype PQ;
	voltage_A 66.1494-15.7236d kV;
	voltage_B 66.1494-135.7236d kV;
	voltage_C 66.1494+104.2764d kV;
	constant_power_A 0.5467+0.1567j MVA;
	constant_power_B 0.5467+0.1567j MVA;
	constant_power_C 0.5467+0.1567j MVA;
}
object load {
	name bus90;
	phases ABC;
	nominal_voltage 66.395 kV;
	bustype PQ;
	voltage_A 66.3674-14.7164d kV;
	voltage_B 66.3674-134.7164d kV;
	voltage_C 66.3674+105.2836d kV;
	constant_power_A 30.8500+8.7933j MVA;
	constant_power_B 30.8500+8.7933j MVA;
	constant_power_C 30.8500+8.7933j MVA;
}
object load {
	name bus91;
	phases ABC;
	nominal_voltage 66.395 kV;
	bustype PQ;
	voltage_A 65.7763-14.5405d kV;
	voltage_B 65.7763-134.5405d kV;
	voltage_C 65.7763+105.4595d kV;
	constant_power_A 2.4933+0.7100j MVA;
	constant_power_B 2.4933+0.7100j MVA;
	constant_power_C 2.4933+0.7100j MVA;
}
object load {
	name bus92;
	phases ABC;
	nominal_voltage 66.395 kV;
	bustype PQ;
	voltage_A 66.3538-14.2987d kV;
	voltage_B 66.3538-134.2987d kV;
	voltage_C 66.3538+105.7013d kV;
	constant_power_A 6.8533+1.9533j MVA;
	constant_power_B 6.8533+1.9533j MVA;
	constant_power_C 6.8533+1.9533j MVA;
}
object load {
	name bus93;
	phases ABC;
	nominal_voltage 66.395 kV;
	bustype PQ;
	voltage_A 66.6414-15.7288d kV;
	voltage_B 66.6414-135.7289d kV;
	voltage_C 66.6414+104.2712d kV;
	constant_power_A 7.6267+2.1733j MVA;
	constant_power_B 7.6267+2.1733j MVA;
	constant_power_C 7.6267+2.1733j MVA;
}
object load {
	name bus94;
	phases ABC;
	nominal_voltage 66.395 kV;
	bustype PQ;
	voltage_A 66.0410-13.6076d kV;
	voltage_B 66.0410-133.6076d kV;
	voltage_C 66.0410+106.3924d kV;
	constant_power_A 3.5367+1.0067j MVA;
	constant_power_B 3.5367+1.0067j MVA;
	constant_power_C 3.5367+1.0067j MVA;
}
object load {
	name bus95;
	phases ABC;
	nominal_voltage 66.395 kV;
	bustype PQ;
	voltage_A 64.6154-17.0324d kV;
	voltage_B 64.6154-137.0324d kV;
	voltage_C 64.6154+102.9676d kV;
	constant_power_A 33.7067+9.6067j MVA;
	constant_power_B 33.7067+9.6067j MVA;
	constant_power_C 33.7067+9.6067j MVA;
}
object load {
	name bus96;
	phases ABC;
	nominal_voltage 66.395 kV;
	bustype PQ;
	voltage_A 66.5229-17.9694d kV;
	voltage_B 66.5229-137.9694d kV;
	voltage_C 66.5229+102.0306d kV;
	constant_power_A 21.0533+6.0000j MVA;
	constant_power_B 21.0533+6.0000j MVA;
	constant_power_C 21.0533+6.0000j MVA;
	constant_impedance_A 0.0000-220.4167j Ohm;
	constant_impedance_B 0.0000-220.4167j Ohm;
	constant_impedance_C 0.0000-220.4167j Ohm;
}
object load {
	name bus97;
	phases ABC;
	nominal_voltage 66.395 kV;
	bustype PQ;
	voltage_A 66.5158-17.4584d kV;
	voltage_B 66.5158-137.4584d kV;
	voltage_C 66.5158+102.5416d kV;
	constant_power_A 4.1600+1.1867j MVA;
	constant_power_B 4.1600+1.1867j MVA;
	constant_power_C 4.1600+1.1867j MVA;
}
object load {
	name bus98;
	phases ABC;
	nominal_voltage 66.395 kV;
	bustype PQ;
	voltage_A 65.9606-16.2886d kV;
	voltage_B 65.9606-136.2886d kV;
	voltage_C 65.9606+103.7114d kV;
	constant_power_A 18.2067+5.1900j MVA;
	constant_power_B 18.2067+5.1900j MVA;
	constant_power_C 18.2067+5.1900j MVA;
	constant_impedance_A 0.0000-264.5000j Ohm;
	constant_impedance_B 0.0000-264.5000j Ohm;
	constant_impedance_C 0.0000-264.5000j Ohm;
}
object load {
	name bus99;
	phases ABC;
	nominal_voltage 66.395 kV;
	bustype PQ;
	voltage_A 65.0462-16.5654d kV;
	voltage_B 65.0462-136.5654d kV;
	voltage_C 65.0462+103.4346d kV;